*SPEF "ieee 1481-1999"
*DESIGN "user_project_wrapper"
*DATE "11:11:11 Fri 11 11, 1111"
*VENDOR "OpenRCX"
*PROGRAM "Parallel Extraction"
*VERSION "1.0"
*DESIGN_FLOW "NAME_SCOPE LOCAL" "PIN_CAP NONE"
*DIVIDER /
*DELIMITER :
*BUS_DELIMITER []
*T_UNIT 1 NS
*C_UNIT 1 PF
*R_UNIT 1 OHM
*L_UNIT 1 HENRY

*NAME_MAP
*1 io_in[0]
*2 io_in[10]
*3 io_in[11]
*4 io_in[12]
*5 io_in[13]
*6 io_in[14]
*7 io_in[15]
*8 io_in[16]
*9 io_in[17]
*10 io_in[18]
*11 io_in[19]
*12 io_in[1]
*13 io_in[20]
*14 io_in[21]
*15 io_in[22]
*16 io_in[23]
*17 io_in[24]
*18 io_in[25]
*19 io_in[26]
*20 io_in[27]
*21 io_in[28]
*22 io_in[29]
*23 io_in[2]
*24 io_in[30]
*25 io_in[31]
*26 io_in[32]
*27 io_in[33]
*28 io_in[34]
*29 io_in[35]
*30 io_in[36]
*31 io_in[37]
*32 io_in[3]
*33 io_in[4]
*34 io_in[5]
*35 io_in[6]
*36 io_in[7]
*37 io_in[8]
*38 io_in[9]
*39 io_oeb[0]
*40 io_oeb[10]
*41 io_oeb[11]
*42 io_oeb[12]
*43 io_oeb[13]
*44 io_oeb[14]
*45 io_oeb[15]
*46 io_oeb[16]
*47 io_oeb[17]
*48 io_oeb[18]
*49 io_oeb[19]
*50 io_oeb[1]
*51 io_oeb[20]
*52 io_oeb[21]
*53 io_oeb[22]
*54 io_oeb[23]
*55 io_oeb[24]
*56 io_oeb[25]
*57 io_oeb[26]
*58 io_oeb[27]
*59 io_oeb[28]
*60 io_oeb[29]
*61 io_oeb[2]
*62 io_oeb[30]
*63 io_oeb[31]
*64 io_oeb[32]
*65 io_oeb[33]
*66 io_oeb[34]
*67 io_oeb[35]
*68 io_oeb[36]
*69 io_oeb[37]
*70 io_oeb[3]
*71 io_oeb[4]
*72 io_oeb[5]
*73 io_oeb[6]
*74 io_oeb[7]
*75 io_oeb[8]
*76 io_oeb[9]
*77 io_out[0]
*78 io_out[10]
*79 io_out[11]
*80 io_out[12]
*81 io_out[13]
*82 io_out[14]
*83 io_out[15]
*84 io_out[16]
*85 io_out[17]
*86 io_out[18]
*87 io_out[19]
*88 io_out[1]
*89 io_out[20]
*90 io_out[21]
*91 io_out[22]
*92 io_out[23]
*93 io_out[24]
*94 io_out[25]
*95 io_out[26]
*96 io_out[27]
*97 io_out[28]
*98 io_out[29]
*99 io_out[2]
*100 io_out[30]
*101 io_out[31]
*102 io_out[32]
*103 io_out[33]
*104 io_out[34]
*105 io_out[35]
*106 io_out[36]
*107 io_out[37]
*108 io_out[3]
*109 io_out[4]
*110 io_out[5]
*111 io_out[6]
*112 io_out[7]
*113 io_out[8]
*114 io_out[9]
*115 la_data_in[0]
*116 la_data_in[10]
*117 la_data_in[11]
*118 la_data_in[12]
*119 la_data_in[13]
*120 la_data_in[14]
*121 la_data_in[15]
*122 la_data_in[16]
*123 la_data_in[17]
*124 la_data_in[18]
*125 la_data_in[19]
*126 la_data_in[1]
*127 la_data_in[20]
*128 la_data_in[21]
*129 la_data_in[22]
*130 la_data_in[23]
*131 la_data_in[24]
*132 la_data_in[25]
*133 la_data_in[26]
*134 la_data_in[27]
*135 la_data_in[28]
*136 la_data_in[29]
*137 la_data_in[2]
*138 la_data_in[30]
*139 la_data_in[31]
*140 la_data_in[32]
*141 la_data_in[33]
*142 la_data_in[34]
*143 la_data_in[35]
*144 la_data_in[36]
*145 la_data_in[37]
*146 la_data_in[38]
*147 la_data_in[39]
*148 la_data_in[3]
*149 la_data_in[40]
*150 la_data_in[41]
*151 la_data_in[42]
*152 la_data_in[43]
*153 la_data_in[44]
*154 la_data_in[45]
*155 la_data_in[46]
*156 la_data_in[47]
*157 la_data_in[48]
*158 la_data_in[49]
*159 la_data_in[4]
*160 la_data_in[50]
*161 la_data_in[51]
*162 la_data_in[52]
*163 la_data_in[53]
*164 la_data_in[54]
*165 la_data_in[55]
*166 la_data_in[56]
*167 la_data_in[57]
*168 la_data_in[58]
*169 la_data_in[59]
*170 la_data_in[5]
*171 la_data_in[60]
*172 la_data_in[61]
*173 la_data_in[62]
*174 la_data_in[63]
*175 la_data_in[6]
*176 la_data_in[7]
*177 la_data_in[8]
*178 la_data_in[9]
*179 la_data_out[0]
*180 la_data_out[10]
*181 la_data_out[11]
*182 la_data_out[12]
*183 la_data_out[13]
*184 la_data_out[14]
*185 la_data_out[15]
*186 la_data_out[16]
*187 la_data_out[17]
*188 la_data_out[18]
*189 la_data_out[19]
*190 la_data_out[1]
*191 la_data_out[20]
*192 la_data_out[21]
*193 la_data_out[22]
*194 la_data_out[23]
*195 la_data_out[24]
*196 la_data_out[25]
*197 la_data_out[26]
*198 la_data_out[27]
*199 la_data_out[28]
*200 la_data_out[29]
*201 la_data_out[2]
*202 la_data_out[30]
*203 la_data_out[31]
*204 la_data_out[32]
*205 la_data_out[33]
*206 la_data_out[34]
*207 la_data_out[35]
*208 la_data_out[36]
*209 la_data_out[37]
*210 la_data_out[38]
*211 la_data_out[39]
*212 la_data_out[3]
*213 la_data_out[40]
*214 la_data_out[41]
*215 la_data_out[42]
*216 la_data_out[43]
*217 la_data_out[44]
*218 la_data_out[45]
*219 la_data_out[46]
*220 la_data_out[47]
*221 la_data_out[48]
*222 la_data_out[49]
*223 la_data_out[4]
*224 la_data_out[50]
*225 la_data_out[51]
*226 la_data_out[52]
*227 la_data_out[53]
*228 la_data_out[54]
*229 la_data_out[55]
*230 la_data_out[56]
*231 la_data_out[57]
*232 la_data_out[58]
*233 la_data_out[59]
*234 la_data_out[5]
*235 la_data_out[60]
*236 la_data_out[61]
*237 la_data_out[62]
*238 la_data_out[63]
*239 la_data_out[6]
*240 la_data_out[7]
*241 la_data_out[8]
*242 la_data_out[9]
*243 la_oenb[0]
*244 la_oenb[10]
*245 la_oenb[11]
*246 la_oenb[12]
*247 la_oenb[13]
*248 la_oenb[14]
*249 la_oenb[15]
*250 la_oenb[16]
*251 la_oenb[17]
*252 la_oenb[18]
*253 la_oenb[19]
*254 la_oenb[1]
*255 la_oenb[20]
*256 la_oenb[21]
*257 la_oenb[22]
*258 la_oenb[23]
*259 la_oenb[24]
*260 la_oenb[25]
*261 la_oenb[26]
*262 la_oenb[27]
*263 la_oenb[28]
*264 la_oenb[29]
*265 la_oenb[2]
*266 la_oenb[30]
*267 la_oenb[31]
*268 la_oenb[32]
*269 la_oenb[33]
*270 la_oenb[34]
*271 la_oenb[35]
*272 la_oenb[36]
*273 la_oenb[37]
*274 la_oenb[38]
*275 la_oenb[39]
*276 la_oenb[3]
*277 la_oenb[40]
*278 la_oenb[41]
*279 la_oenb[42]
*280 la_oenb[43]
*281 la_oenb[44]
*282 la_oenb[45]
*283 la_oenb[46]
*284 la_oenb[47]
*285 la_oenb[48]
*286 la_oenb[49]
*287 la_oenb[4]
*288 la_oenb[50]
*289 la_oenb[51]
*290 la_oenb[52]
*291 la_oenb[53]
*292 la_oenb[54]
*293 la_oenb[55]
*294 la_oenb[56]
*295 la_oenb[57]
*296 la_oenb[58]
*297 la_oenb[59]
*298 la_oenb[5]
*299 la_oenb[60]
*300 la_oenb[61]
*301 la_oenb[62]
*302 la_oenb[63]
*303 la_oenb[6]
*304 la_oenb[7]
*305 la_oenb[8]
*306 la_oenb[9]
*307 user_clock2
*308 user_irq[0]
*309 user_irq[1]
*310 user_irq[2]
*313 wb_clk_i
*314 wb_rst_i
*315 wbs_ack_o
*316 wbs_adr_i[0]
*317 wbs_adr_i[10]
*318 wbs_adr_i[11]
*319 wbs_adr_i[12]
*320 wbs_adr_i[13]
*321 wbs_adr_i[14]
*322 wbs_adr_i[15]
*323 wbs_adr_i[16]
*324 wbs_adr_i[17]
*325 wbs_adr_i[18]
*326 wbs_adr_i[19]
*327 wbs_adr_i[1]
*328 wbs_adr_i[20]
*329 wbs_adr_i[21]
*330 wbs_adr_i[22]
*331 wbs_adr_i[23]
*332 wbs_adr_i[24]
*333 wbs_adr_i[25]
*334 wbs_adr_i[26]
*335 wbs_adr_i[27]
*336 wbs_adr_i[28]
*337 wbs_adr_i[29]
*338 wbs_adr_i[2]
*339 wbs_adr_i[30]
*340 wbs_adr_i[31]
*341 wbs_adr_i[3]
*342 wbs_adr_i[4]
*343 wbs_adr_i[5]
*344 wbs_adr_i[6]
*345 wbs_adr_i[7]
*346 wbs_adr_i[8]
*347 wbs_adr_i[9]
*348 wbs_cyc_i
*349 wbs_dat_i[0]
*350 wbs_dat_i[10]
*351 wbs_dat_i[11]
*352 wbs_dat_i[12]
*353 wbs_dat_i[13]
*354 wbs_dat_i[14]
*355 wbs_dat_i[15]
*356 wbs_dat_i[16]
*357 wbs_dat_i[17]
*358 wbs_dat_i[18]
*359 wbs_dat_i[19]
*360 wbs_dat_i[1]
*361 wbs_dat_i[20]
*362 wbs_dat_i[21]
*363 wbs_dat_i[22]
*364 wbs_dat_i[23]
*365 wbs_dat_i[24]
*366 wbs_dat_i[25]
*367 wbs_dat_i[26]
*368 wbs_dat_i[27]
*369 wbs_dat_i[28]
*370 wbs_dat_i[29]
*371 wbs_dat_i[2]
*372 wbs_dat_i[30]
*373 wbs_dat_i[31]
*374 wbs_dat_i[3]
*375 wbs_dat_i[4]
*376 wbs_dat_i[5]
*377 wbs_dat_i[6]
*378 wbs_dat_i[7]
*379 wbs_dat_i[8]
*380 wbs_dat_i[9]
*381 wbs_dat_o[0]
*382 wbs_dat_o[10]
*383 wbs_dat_o[11]
*384 wbs_dat_o[12]
*385 wbs_dat_o[13]
*386 wbs_dat_o[14]
*387 wbs_dat_o[15]
*388 wbs_dat_o[16]
*389 wbs_dat_o[17]
*390 wbs_dat_o[18]
*391 wbs_dat_o[19]
*392 wbs_dat_o[1]
*393 wbs_dat_o[20]
*394 wbs_dat_o[21]
*395 wbs_dat_o[22]
*396 wbs_dat_o[23]
*397 wbs_dat_o[24]
*398 wbs_dat_o[25]
*399 wbs_dat_o[26]
*400 wbs_dat_o[27]
*401 wbs_dat_o[28]
*402 wbs_dat_o[29]
*403 wbs_dat_o[2]
*404 wbs_dat_o[30]
*405 wbs_dat_o[31]
*406 wbs_dat_o[3]
*407 wbs_dat_o[4]
*408 wbs_dat_o[5]
*409 wbs_dat_o[6]
*410 wbs_dat_o[7]
*411 wbs_dat_o[8]
*412 wbs_dat_o[9]
*413 wbs_sel_i[0]
*414 wbs_sel_i[1]
*415 wbs_sel_i[2]
*416 wbs_sel_i[3]
*417 wbs_stb_i
*418 wbs_we_i
*419 mprj

*PORTS
io_in[0] I
io_in[10] I
io_in[11] I
io_in[12] I
io_in[13] I
io_in[14] I
io_in[15] I
io_in[16] I
io_in[17] I
io_in[18] I
io_in[19] I
io_in[1] I
io_in[20] I
io_in[21] I
io_in[22] I
io_in[23] I
io_in[24] I
io_in[25] I
io_in[26] I
io_in[27] I
io_in[28] I
io_in[29] I
io_in[2] I
io_in[30] I
io_in[31] I
io_in[32] I
io_in[33] I
io_in[34] I
io_in[35] I
io_in[36] I
io_in[37] I
io_in[3] I
io_in[4] I
io_in[5] I
io_in[6] I
io_in[7] I
io_in[8] I
io_in[9] I
io_oeb[0] O
io_oeb[10] O
io_oeb[11] O
io_oeb[12] O
io_oeb[13] O
io_oeb[14] O
io_oeb[15] O
io_oeb[16] O
io_oeb[17] O
io_oeb[18] O
io_oeb[19] O
io_oeb[1] O
io_oeb[20] O
io_oeb[21] O
io_oeb[22] O
io_oeb[23] O
io_oeb[24] O
io_oeb[25] O
io_oeb[26] O
io_oeb[27] O
io_oeb[28] O
io_oeb[29] O
io_oeb[2] O
io_oeb[30] O
io_oeb[31] O
io_oeb[32] O
io_oeb[33] O
io_oeb[34] O
io_oeb[35] O
io_oeb[36] O
io_oeb[37] O
io_oeb[3] O
io_oeb[4] O
io_oeb[5] O
io_oeb[6] O
io_oeb[7] O
io_oeb[8] O
io_oeb[9] O
io_out[0] O
io_out[10] O
io_out[11] O
io_out[12] O
io_out[13] O
io_out[14] O
io_out[15] O
io_out[16] O
io_out[17] O
io_out[18] O
io_out[19] O
io_out[1] O
io_out[20] O
io_out[21] O
io_out[22] O
io_out[23] O
io_out[24] O
io_out[25] O
io_out[26] O
io_out[27] O
io_out[28] O
io_out[29] O
io_out[2] O
io_out[30] O
io_out[31] O
io_out[32] O
io_out[33] O
io_out[34] O
io_out[35] O
io_out[36] O
io_out[37] O
io_out[3] O
io_out[4] O
io_out[5] O
io_out[6] O
io_out[7] O
io_out[8] O
io_out[9] O
la_data_in[0] I
la_data_in[10] I
la_data_in[11] I
la_data_in[12] I
la_data_in[13] I
la_data_in[14] I
la_data_in[15] I
la_data_in[16] I
la_data_in[17] I
la_data_in[18] I
la_data_in[19] I
la_data_in[1] I
la_data_in[20] I
la_data_in[21] I
la_data_in[22] I
la_data_in[23] I
la_data_in[24] I
la_data_in[25] I
la_data_in[26] I
la_data_in[27] I
la_data_in[28] I
la_data_in[29] I
la_data_in[2] I
la_data_in[30] I
la_data_in[31] I
la_data_in[32] I
la_data_in[33] I
la_data_in[34] I
la_data_in[35] I
la_data_in[36] I
la_data_in[37] I
la_data_in[38] I
la_data_in[39] I
la_data_in[3] I
la_data_in[40] I
la_data_in[41] I
la_data_in[42] I
la_data_in[43] I
la_data_in[44] I
la_data_in[45] I
la_data_in[46] I
la_data_in[47] I
la_data_in[48] I
la_data_in[49] I
la_data_in[4] I
la_data_in[50] I
la_data_in[51] I
la_data_in[52] I
la_data_in[53] I
la_data_in[54] I
la_data_in[55] I
la_data_in[56] I
la_data_in[57] I
la_data_in[58] I
la_data_in[59] I
la_data_in[5] I
la_data_in[60] I
la_data_in[61] I
la_data_in[62] I
la_data_in[63] I
la_data_in[6] I
la_data_in[7] I
la_data_in[8] I
la_data_in[9] I
la_data_out[0] O
la_data_out[10] O
la_data_out[11] O
la_data_out[12] O
la_data_out[13] O
la_data_out[14] O
la_data_out[15] O
la_data_out[16] O
la_data_out[17] O
la_data_out[18] O
la_data_out[19] O
la_data_out[1] O
la_data_out[20] O
la_data_out[21] O
la_data_out[22] O
la_data_out[23] O
la_data_out[24] O
la_data_out[25] O
la_data_out[26] O
la_data_out[27] O
la_data_out[28] O
la_data_out[29] O
la_data_out[2] O
la_data_out[30] O
la_data_out[31] O
la_data_out[32] O
la_data_out[33] O
la_data_out[34] O
la_data_out[35] O
la_data_out[36] O
la_data_out[37] O
la_data_out[38] O
la_data_out[39] O
la_data_out[3] O
la_data_out[40] O
la_data_out[41] O
la_data_out[42] O
la_data_out[43] O
la_data_out[44] O
la_data_out[45] O
la_data_out[46] O
la_data_out[47] O
la_data_out[48] O
la_data_out[49] O
la_data_out[4] O
la_data_out[50] O
la_data_out[51] O
la_data_out[52] O
la_data_out[53] O
la_data_out[54] O
la_data_out[55] O
la_data_out[56] O
la_data_out[57] O
la_data_out[58] O
la_data_out[59] O
la_data_out[5] O
la_data_out[60] O
la_data_out[61] O
la_data_out[62] O
la_data_out[63] O
la_data_out[6] O
la_data_out[7] O
la_data_out[8] O
la_data_out[9] O
la_oenb[0] I
la_oenb[10] I
la_oenb[11] I
la_oenb[12] I
la_oenb[13] I
la_oenb[14] I
la_oenb[15] I
la_oenb[16] I
la_oenb[17] I
la_oenb[18] I
la_oenb[19] I
la_oenb[1] I
la_oenb[20] I
la_oenb[21] I
la_oenb[22] I
la_oenb[23] I
la_oenb[24] I
la_oenb[25] I
la_oenb[26] I
la_oenb[27] I
la_oenb[28] I
la_oenb[29] I
la_oenb[2] I
la_oenb[30] I
la_oenb[31] I
la_oenb[32] I
la_oenb[33] I
la_oenb[34] I
la_oenb[35] I
la_oenb[36] I
la_oenb[37] I
la_oenb[38] I
la_oenb[39] I
la_oenb[3] I
la_oenb[40] I
la_oenb[41] I
la_oenb[42] I
la_oenb[43] I
la_oenb[44] I
la_oenb[45] I
la_oenb[46] I
la_oenb[47] I
la_oenb[48] I
la_oenb[49] I
la_oenb[4] I
la_oenb[50] I
la_oenb[51] I
la_oenb[52] I
la_oenb[53] I
la_oenb[54] I
la_oenb[55] I
la_oenb[56] I
la_oenb[57] I
la_oenb[58] I
la_oenb[59] I
la_oenb[5] I
la_oenb[60] I
la_oenb[61] I
la_oenb[62] I
la_oenb[63] I
la_oenb[6] I
la_oenb[7] I
la_oenb[8] I
la_oenb[9] I
user_clock2 I
user_irq[0] O
user_irq[1] O
user_irq[2] O
wb_clk_i I
wb_rst_i I
wbs_ack_o O
wbs_adr_i[0] I
wbs_adr_i[10] I
wbs_adr_i[11] I
wbs_adr_i[12] I
wbs_adr_i[13] I
wbs_adr_i[14] I
wbs_adr_i[15] I
wbs_adr_i[16] I
wbs_adr_i[17] I
wbs_adr_i[18] I
wbs_adr_i[19] I
wbs_adr_i[1] I
wbs_adr_i[20] I
wbs_adr_i[21] I
wbs_adr_i[22] I
wbs_adr_i[23] I
wbs_adr_i[24] I
wbs_adr_i[25] I
wbs_adr_i[26] I
wbs_adr_i[27] I
wbs_adr_i[28] I
wbs_adr_i[29] I
wbs_adr_i[2] I
wbs_adr_i[30] I
wbs_adr_i[31] I
wbs_adr_i[3] I
wbs_adr_i[4] I
wbs_adr_i[5] I
wbs_adr_i[6] I
wbs_adr_i[7] I
wbs_adr_i[8] I
wbs_adr_i[9] I
wbs_cyc_i I
wbs_dat_i[0] I
wbs_dat_i[10] I
wbs_dat_i[11] I
wbs_dat_i[12] I
wbs_dat_i[13] I
wbs_dat_i[14] I
wbs_dat_i[15] I
wbs_dat_i[16] I
wbs_dat_i[17] I
wbs_dat_i[18] I
wbs_dat_i[19] I
wbs_dat_i[1] I
wbs_dat_i[20] I
wbs_dat_i[21] I
wbs_dat_i[22] I
wbs_dat_i[23] I
wbs_dat_i[24] I
wbs_dat_i[25] I
wbs_dat_i[26] I
wbs_dat_i[27] I
wbs_dat_i[28] I
wbs_dat_i[29] I
wbs_dat_i[2] I
wbs_dat_i[30] I
wbs_dat_i[31] I
wbs_dat_i[3] I
wbs_dat_i[4] I
wbs_dat_i[5] I
wbs_dat_i[6] I
wbs_dat_i[7] I
wbs_dat_i[8] I
wbs_dat_i[9] I
wbs_dat_o[0] O
wbs_dat_o[10] O
wbs_dat_o[11] O
wbs_dat_o[12] O
wbs_dat_o[13] O
wbs_dat_o[14] O
wbs_dat_o[15] O
wbs_dat_o[16] O
wbs_dat_o[17] O
wbs_dat_o[18] O
wbs_dat_o[19] O
wbs_dat_o[1] O
wbs_dat_o[20] O
wbs_dat_o[21] O
wbs_dat_o[22] O
wbs_dat_o[23] O
wbs_dat_o[24] O
wbs_dat_o[25] O
wbs_dat_o[26] O
wbs_dat_o[27] O
wbs_dat_o[28] O
wbs_dat_o[29] O
wbs_dat_o[2] O
wbs_dat_o[30] O
wbs_dat_o[31] O
wbs_dat_o[3] O
wbs_dat_o[4] O
wbs_dat_o[5] O
wbs_dat_o[6] O
wbs_dat_o[7] O
wbs_dat_o[8] O
wbs_dat_o[9] O
wbs_sel_i[0] I
wbs_sel_i[1] I
wbs_sel_i[2] I
wbs_sel_i[3] I
wbs_stb_i I
wbs_we_i I

*D_NET *1 0.0118803
*CONN
*P io_in[0] I
*I *419:io_in[0] I *D ADC_LogiCompilation
*CAP
1 io_in[0] 0.00311806
2 *419:io_in[0] 0.0028221
3 *1:11 0.00594016
*RES
1 io_in[0] *1:11 30.09 
2 *1:11 *419:io_in[0] 20.71 
*END

*D_NET *2 0.503562
*CONN
*P io_in[10] I
*I *419:io_in[10] I *D ADC_LogiCompilation
*CAP
1 io_in[10] 0.00100554
2 *419:io_in[10] 0.000174008
3 *2:13 0.12144
4 *2:11 0.121266
5 *2:9 0.0139639
6 *2:7 0.0149695
7 *2:9 *3:9 0.155034
8 *2:9 *38:9 0.0757087
*RES
1 io_in[10] *2:7 11.226 
2 *2:7 *2:9 372.289 
3 *2:9 *2:11 4.5 
4 *2:11 *2:13 328.477 
5 *2:13 *419:io_in[10] 10.1373 
*END

*D_NET *3 0.576404
*CONN
*P io_in[11] I
*I *419:io_in[11] I *D ADC_LogiCompilation
*CAP
1 io_in[11] 0.00102617
2 *419:io_in[11] 8.59557e-05
3 *3:13 0.0970622
4 *3:11 0.0969763
5 *3:9 0.00963464
6 *3:7 0.0106608
7 *3:9 *4:9 0.205924
8 *2:9 *3:9 0.155034
*RES
1 io_in[11] *3:7 11.378 
2 *3:7 *3:9 494.497 
3 *3:9 *3:11 4.5 
4 *3:11 *3:13 328.414 
5 *3:13 *419:io_in[11] 9.56729 
*END

*D_NET *4 0.712489
*CONN
*P io_in[12] I
*I *419:io_in[12] I *D ADC_LogiCompilation
*CAP
1 io_in[12] 0.00104681
2 *419:io_in[12] 0.000218194
3 *4:13 0.200279
4 *4:11 0.200061
5 *4:9 0.0518174
6 *4:7 0.0528642
7 *4:9 *37:11 0.000278465
8 *3:9 *4:9 0.205924
*RES
1 io_in[12] *4:7 11.53 
2 *4:7 *4:9 617.926 
3 *4:9 *4:11 4.5 
4 *4:11 *4:13 328.477 
5 *4:13 *419:io_in[12] 10.2079 
*END

*D_NET *12 0.0147052
*CONN
*P io_in[1] I
*I *419:io_in[1] I *D ADC_LogiCompilation
*CAP
1 io_in[1] 0.00383963
2 *419:io_in[1] 0.00351296
3 *12:11 0.00735259
*RES
1 io_in[1] *12:11 35.866 
2 *12:11 *419:io_in[1] 20.71 
*END

*D_NET *23 0.0160863
*CONN
*P io_in[2] I
*I *419:io_in[2] I *D ADC_LogiCompilation
*CAP
1 io_in[2] 0.00393533
2 *419:io_in[2] 0.00342733
3 *23:7 0.00736266
4 *419:io_in[2] *99:11 0.00136096
*RES
1 io_in[2] *23:7 31.898 
2 *23:7 *419:io_in[2] 30.758 
*END

*D_NET *32 0.0194407
*CONN
*P io_in[3] I
*I *419:io_in[3] I *D ADC_LogiCompilation
*CAP
1 io_in[3] 0.00393533
2 *419:io_in[3] 0.00385288
3 *32:7 0.00778821
4 *419:io_in[3] *108:9 0.00386423
*RES
1 io_in[3] *32:7 31.898 
2 *32:7 *419:io_in[3] 36.534 
*END

*D_NET *33 0.0237836
*CONN
*P io_in[4] I
*I *419:io_in[4] I *D ADC_LogiCompilation
*CAP
1 io_in[4] 0.00394902
2 *419:io_in[4] 0.00419911
3 *33:7 0.00814813
4 *419:io_in[4] *108:9 0.00125347
5 *419:io_in[4] *109:11 0.00623385
*RES
1 io_in[4] *33:7 31.898 
2 *33:7 *419:io_in[4] 42.31 
*END

*D_NET *34 0.0282349
*CONN
*P io_in[5] I
*I *419:io_in[5] I *D ADC_LogiCompilation
*CAP
1 io_in[5] 0.00394902
2 *419:io_in[5] 0.0040286
3 *34:7 0.00797761
4 *419:io_in[5] *109:11 0.00367646
5 *419:io_in[5] *110:9 0.00860317
*RES
1 io_in[5] *34:7 31.898 
2 *34:7 *419:io_in[5] 48.086 
*END

*D_NET *35 0.0301911
*CONN
*P io_in[6] I
*I *419:io_in[6] I *D ADC_LogiCompilation
*CAP
1 io_in[6] 0.00394206
2 *419:io_in[6] 0.000710136
3 *35:11 0.00405312
4 *35:7 0.00728505
5 *35:11 *110:9 0.0031478
6 *35:11 *111:9 0.0110529
*RES
1 io_in[6] *35:7 31.746 
2 *35:7 *35:11 48.96 
3 *35:11 *419:io_in[6] 5.054 
*END

*D_NET *36 0.0312908
*CONN
*P io_in[7] I
*I *419:io_in[7] I *D ADC_LogiCompilation
*CAP
1 io_in[7] 0.00395574
2 *419:io_in[7] 0.000710124
3 *36:9 0.00431292
4 *36:7 0.00755854
5 *36:9 *111:9 0.00848841
6 *36:9 *112:9 0.00626503
*RES
1 io_in[7] *36:7 31.746 
2 *36:7 *36:9 50.236 
3 *36:9 *419:io_in[7] 9.554 
*END

*D_NET *37 0.200475
*CONN
*P io_in[8] I
*I *419:io_in[8] I *D ADC_LogiCompilation
*CAP
1 io_in[8] 0.00135505
2 *419:io_in[8] 0.00141185
3 *37:13 0.0987431
4 *37:11 0.0986863
5 *4:9 *37:11 0.000278465
*RES
1 io_in[8] *37:11 18.4213 
2 *37:11 *37:13 329.75 
3 *37:13 *419:io_in[8] 16.8307 
*END

*D_NET *38 0.320295
*CONN
*P io_in[9] I
*I *419:io_in[9] I *D ADC_LogiCompilation
*CAP
1 io_in[9] 0.00117099
2 *419:io_in[9] 0.000222887
3 *38:13 0.0973479
4 *38:11 0.097125
5 *38:9 0.00742301
6 *38:7 0.00859401
7 *38:9 *113:14 0.0327031
8 *2:9 *38:9 0.0757087
*RES
1 io_in[9] *38:7 11.074 
2 *38:7 *38:9 181.681 
3 *38:9 *38:11 4.5 
4 *38:11 *38:13 328.732 
5 *38:13 *419:io_in[9] 10.5173 
*END

*D_NET *77 0.0152479
*CONN
*P io_out[0] O
*I *419:io_out[0] O *D ADC_LogiCompilation
*CAP
1 io_out[0] 0.00392862
2 *419:io_out[0] 0.00369531
3 *77:11 0.00762393
*RES
1 *419:io_out[0] *77:11 35.41 
2 *77:11 io_out[0] 27.55 
*END

*D_NET *88 0.0167915
*CONN
*P io_out[1] O
*I *419:io_out[1] O *D ADC_LogiCompilation
*CAP
1 io_out[1] 0.00394229
2 *419:io_out[1] 0.00445346
3 *88:11 0.00839575
*RES
1 *419:io_out[1] *88:11 41.186 
2 *88:11 io_out[1] 27.55 
*END

*D_NET *99 0.019374
*CONN
*P io_out[2] O
*I *419:io_out[2] O *D ADC_LogiCompilation
*CAP
1 io_out[2] 0.00396965
2 *419:io_out[2] 0.00503687
3 *99:11 0.00900653
4 *419:io_in[2] *99:11 0.00136096
*RES
1 *419:io_out[2] *99:11 46.962 
2 *99:11 io_out[2] 27.55 
*END

*D_NET *108 0.0234785
*CONN
*P io_out[3] O
*I *419:io_out[3] O *D ADC_LogiCompilation
*CAP
1 io_out[3] 0.00398334
2 *419:io_out[3] 0.00519704
3 *108:9 0.00918037
4 *419:io_in[3] *108:9 0.00386423
5 *419:io_in[4] *108:9 0.00125347
*RES
1 *419:io_out[3] *108:9 48.238 
2 *108:9 io_out[3] 32.05 
*END

*D_NET *109 0.028372
*CONN
*P io_out[4] O
*I *419:io_out[4] O *D ADC_LogiCompilation
*CAP
1 io_out[4] 0.00398334
2 *419:io_out[4] 0.000655179
3 *109:11 0.00857569
4 *109:7 0.00524753
5 *419:io_in[4] *109:11 0.00623385
6 *419:io_in[5] *109:11 0.00367646
*RES
1 *419:io_out[4] *109:7 9.25 
2 *109:7 *109:11 49.264 
3 *109:11 io_out[4] 27.55 
*END

*D_NET *110 0.0302661
*CONN
*P io_out[5] O
*I *419:io_out[5] O *D ADC_LogiCompilation
*CAP
1 io_out[5] 0.00398334
2 *419:io_out[5] 0.000655179
3 *110:9 0.00860237
4 *110:7 0.00527422
5 *419:io_in[5] *110:9 0.00860317
6 *35:11 *110:9 0.0031478
*RES
1 *419:io_out[5] *110:7 9.25 
2 *110:7 *110:9 50.54 
3 *110:9 io_out[5] 32.05 
*END

*D_NET *111 0.0388056
*CONN
*P io_out[6] O
*I *419:io_out[6] O *D ADC_LogiCompilation
*CAP
1 io_out[6] 0.00397638
2 *419:io_out[6] 0.000689499
3 *111:9 0.00844921
4 *111:7 0.00516233
5 *111:9 *112:9 0.000986831
6 *35:11 *111:9 0.0110529
7 *36:9 *111:9 0.00848841
*RES
1 *419:io_out[6] *111:7 9.402 
2 *111:7 *111:9 56.316 
3 *111:9 io_out[6] 31.898 
*END

*D_NET *112 0.0311858
*CONN
*P io_out[7] O
*I *419:io_out[7] O *D ADC_LogiCompilation
*CAP
1 io_out[7] 0.0048427
2 *419:io_out[7] 0.000655179
3 *112:9 0.0113118
4 *112:7 0.00712425
5 *36:9 *112:9 0.00626503
6 *111:9 *112:9 0.000986831
*RES
1 *419:io_out[7] *112:7 9.25 
2 *112:7 *112:9 62.092 
3 *112:9 io_out[7] 32.05 
*END

*D_NET *113 0.446327
*CONN
*P io_out[8] O
*I *419:io_out[8] O *D ADC_LogiCompilation
*CAP
1 io_out[8] 0.000964261
2 *419:io_out[8] 8.52431e-05
3 *113:14 0.00655233
4 *113:12 0.00558807
5 *113:10 0.200175
6 *113:8 0.20026
7 *38:9 *113:14 0.0327031
*RES
1 *419:io_out[8] *113:8 9.56186 
2 *113:8 *113:10 328.605 
3 *113:10 *113:12 4.5 
4 *113:12 *113:14 78.6301 
5 *113:14 io_out[8] 10.922 
*END

*D_NET *114 0.348569
*CONN
*P io_out[9] O
*I *419:io_out[9] O *D ADC_LogiCompilation
*CAP
1 io_out[9] 0.111643
2 *419:io_out[9] 0.000668396
3 *114:11 0.111643
4 *114:9 0.0619725
5 *114:7 0.0626409
*RES
1 *419:io_out[9] *114:7 8.642 
2 *114:7 *114:9 269.116 
3 *114:9 *114:11 4.5 
4 *114:11 io_out[9] 796.214 
*END

*D_NET *313 0.108012
*CONN
*P wb_clk_i I
*I *419:wb_clk_i I *D ADC_LogiCompilation
*CAP
1 wb_clk_i 0.000140838
2 *419:wb_clk_i 0.000605534
3 *313:13 0.0538651
4 *313:11 0.0534004
*RES
1 wb_clk_i *313:11 5.602 
2 *313:11 *313:13 380.228 
3 *313:13 *419:wb_clk_i 8.642 
*END
