*SPEF "ieee 1481-1999"
*DESIGN "user_project_wrapper"
*DATE "11:11:11 Fri 11 11, 1111"
*VENDOR "OpenRCX"
*PROGRAM "Parallel Extraction"
*VERSION "1.0"
*DESIGN_FLOW "NAME_SCOPE LOCAL" "PIN_CAP NONE"
*DIVIDER /
*DELIMITER :
*BUS_DELIMITER []
*T_UNIT 1 NS
*C_UNIT 1 PF
*R_UNIT 1 OHM
*L_UNIT 1 HENRY

*NAME_MAP
*1 io_in[0]
*2 io_in[10]
*3 io_in[11]
*4 io_in[12]
*5 io_in[13]
*6 io_in[14]
*7 io_in[15]
*8 io_in[16]
*9 io_in[17]
*10 io_in[18]
*11 io_in[19]
*12 io_in[1]
*13 io_in[20]
*14 io_in[21]
*15 io_in[22]
*16 io_in[23]
*17 io_in[24]
*18 io_in[25]
*19 io_in[26]
*20 io_in[27]
*21 io_in[28]
*22 io_in[29]
*23 io_in[2]
*24 io_in[30]
*25 io_in[31]
*26 io_in[32]
*27 io_in[33]
*28 io_in[34]
*29 io_in[35]
*30 io_in[36]
*31 io_in[37]
*32 io_in[3]
*33 io_in[4]
*34 io_in[5]
*35 io_in[6]
*36 io_in[7]
*37 io_in[8]
*38 io_in[9]
*39 io_oeb[0]
*40 io_oeb[10]
*41 io_oeb[11]
*42 io_oeb[12]
*43 io_oeb[13]
*44 io_oeb[14]
*45 io_oeb[15]
*46 io_oeb[16]
*47 io_oeb[17]
*48 io_oeb[18]
*49 io_oeb[19]
*50 io_oeb[1]
*51 io_oeb[20]
*52 io_oeb[21]
*53 io_oeb[22]
*54 io_oeb[23]
*55 io_oeb[24]
*56 io_oeb[25]
*57 io_oeb[26]
*58 io_oeb[27]
*59 io_oeb[28]
*60 io_oeb[29]
*61 io_oeb[2]
*62 io_oeb[30]
*63 io_oeb[31]
*64 io_oeb[32]
*65 io_oeb[33]
*66 io_oeb[34]
*67 io_oeb[35]
*68 io_oeb[36]
*69 io_oeb[37]
*70 io_oeb[3]
*71 io_oeb[4]
*72 io_oeb[5]
*73 io_oeb[6]
*74 io_oeb[7]
*75 io_oeb[8]
*76 io_oeb[9]
*77 io_out[0]
*78 io_out[10]
*79 io_out[11]
*80 io_out[12]
*81 io_out[13]
*82 io_out[14]
*83 io_out[15]
*84 io_out[16]
*85 io_out[17]
*86 io_out[18]
*87 io_out[19]
*88 io_out[1]
*89 io_out[20]
*90 io_out[21]
*91 io_out[22]
*92 io_out[23]
*93 io_out[24]
*94 io_out[25]
*95 io_out[26]
*96 io_out[27]
*97 io_out[28]
*98 io_out[29]
*99 io_out[2]
*100 io_out[30]
*101 io_out[31]
*102 io_out[32]
*103 io_out[33]
*104 io_out[34]
*105 io_out[35]
*106 io_out[36]
*107 io_out[37]
*108 io_out[3]
*109 io_out[4]
*110 io_out[5]
*111 io_out[6]
*112 io_out[7]
*113 io_out[8]
*114 io_out[9]
*115 la_data_in[0]
*116 la_data_in[10]
*117 la_data_in[11]
*118 la_data_in[12]
*119 la_data_in[13]
*120 la_data_in[14]
*121 la_data_in[15]
*122 la_data_in[16]
*123 la_data_in[17]
*124 la_data_in[18]
*125 la_data_in[19]
*126 la_data_in[1]
*127 la_data_in[20]
*128 la_data_in[21]
*129 la_data_in[22]
*130 la_data_in[23]
*131 la_data_in[24]
*132 la_data_in[25]
*133 la_data_in[26]
*134 la_data_in[27]
*135 la_data_in[28]
*136 la_data_in[29]
*137 la_data_in[2]
*138 la_data_in[30]
*139 la_data_in[31]
*140 la_data_in[32]
*141 la_data_in[33]
*142 la_data_in[34]
*143 la_data_in[35]
*144 la_data_in[36]
*145 la_data_in[37]
*146 la_data_in[38]
*147 la_data_in[39]
*148 la_data_in[3]
*149 la_data_in[40]
*150 la_data_in[41]
*151 la_data_in[42]
*152 la_data_in[43]
*153 la_data_in[44]
*154 la_data_in[45]
*155 la_data_in[46]
*156 la_data_in[47]
*157 la_data_in[48]
*158 la_data_in[49]
*159 la_data_in[4]
*160 la_data_in[50]
*161 la_data_in[51]
*162 la_data_in[52]
*163 la_data_in[53]
*164 la_data_in[54]
*165 la_data_in[55]
*166 la_data_in[56]
*167 la_data_in[57]
*168 la_data_in[58]
*169 la_data_in[59]
*170 la_data_in[5]
*171 la_data_in[60]
*172 la_data_in[61]
*173 la_data_in[62]
*174 la_data_in[63]
*175 la_data_in[6]
*176 la_data_in[7]
*177 la_data_in[8]
*178 la_data_in[9]
*179 la_data_out[0]
*180 la_data_out[10]
*181 la_data_out[11]
*182 la_data_out[12]
*183 la_data_out[13]
*184 la_data_out[14]
*185 la_data_out[15]
*186 la_data_out[16]
*187 la_data_out[17]
*188 la_data_out[18]
*189 la_data_out[19]
*190 la_data_out[1]
*191 la_data_out[20]
*192 la_data_out[21]
*193 la_data_out[22]
*194 la_data_out[23]
*195 la_data_out[24]
*196 la_data_out[25]
*197 la_data_out[26]
*198 la_data_out[27]
*199 la_data_out[28]
*200 la_data_out[29]
*201 la_data_out[2]
*202 la_data_out[30]
*203 la_data_out[31]
*204 la_data_out[32]
*205 la_data_out[33]
*206 la_data_out[34]
*207 la_data_out[35]
*208 la_data_out[36]
*209 la_data_out[37]
*210 la_data_out[38]
*211 la_data_out[39]
*212 la_data_out[3]
*213 la_data_out[40]
*214 la_data_out[41]
*215 la_data_out[42]
*216 la_data_out[43]
*217 la_data_out[44]
*218 la_data_out[45]
*219 la_data_out[46]
*220 la_data_out[47]
*221 la_data_out[48]
*222 la_data_out[49]
*223 la_data_out[4]
*224 la_data_out[50]
*225 la_data_out[51]
*226 la_data_out[52]
*227 la_data_out[53]
*228 la_data_out[54]
*229 la_data_out[55]
*230 la_data_out[56]
*231 la_data_out[57]
*232 la_data_out[58]
*233 la_data_out[59]
*234 la_data_out[5]
*235 la_data_out[60]
*236 la_data_out[61]
*237 la_data_out[62]
*238 la_data_out[63]
*239 la_data_out[6]
*240 la_data_out[7]
*241 la_data_out[8]
*242 la_data_out[9]
*243 la_oenb[0]
*244 la_oenb[10]
*245 la_oenb[11]
*246 la_oenb[12]
*247 la_oenb[13]
*248 la_oenb[14]
*249 la_oenb[15]
*250 la_oenb[16]
*251 la_oenb[17]
*252 la_oenb[18]
*253 la_oenb[19]
*254 la_oenb[1]
*255 la_oenb[20]
*256 la_oenb[21]
*257 la_oenb[22]
*258 la_oenb[23]
*259 la_oenb[24]
*260 la_oenb[25]
*261 la_oenb[26]
*262 la_oenb[27]
*263 la_oenb[28]
*264 la_oenb[29]
*265 la_oenb[2]
*266 la_oenb[30]
*267 la_oenb[31]
*268 la_oenb[32]
*269 la_oenb[33]
*270 la_oenb[34]
*271 la_oenb[35]
*272 la_oenb[36]
*273 la_oenb[37]
*274 la_oenb[38]
*275 la_oenb[39]
*276 la_oenb[3]
*277 la_oenb[40]
*278 la_oenb[41]
*279 la_oenb[42]
*280 la_oenb[43]
*281 la_oenb[44]
*282 la_oenb[45]
*283 la_oenb[46]
*284 la_oenb[47]
*285 la_oenb[48]
*286 la_oenb[49]
*287 la_oenb[4]
*288 la_oenb[50]
*289 la_oenb[51]
*290 la_oenb[52]
*291 la_oenb[53]
*292 la_oenb[54]
*293 la_oenb[55]
*294 la_oenb[56]
*295 la_oenb[57]
*296 la_oenb[58]
*297 la_oenb[59]
*298 la_oenb[5]
*299 la_oenb[60]
*300 la_oenb[61]
*301 la_oenb[62]
*302 la_oenb[63]
*303 la_oenb[6]
*304 la_oenb[7]
*305 la_oenb[8]
*306 la_oenb[9]
*307 user_clock2
*308 user_irq[0]
*309 user_irq[1]
*310 user_irq[2]
*313 wb_clk_i
*314 wb_rst_i
*315 wbs_ack_o
*316 wbs_adr_i[0]
*317 wbs_adr_i[10]
*318 wbs_adr_i[11]
*319 wbs_adr_i[12]
*320 wbs_adr_i[13]
*321 wbs_adr_i[14]
*322 wbs_adr_i[15]
*323 wbs_adr_i[16]
*324 wbs_adr_i[17]
*325 wbs_adr_i[18]
*326 wbs_adr_i[19]
*327 wbs_adr_i[1]
*328 wbs_adr_i[20]
*329 wbs_adr_i[21]
*330 wbs_adr_i[22]
*331 wbs_adr_i[23]
*332 wbs_adr_i[24]
*333 wbs_adr_i[25]
*334 wbs_adr_i[26]
*335 wbs_adr_i[27]
*336 wbs_adr_i[28]
*337 wbs_adr_i[29]
*338 wbs_adr_i[2]
*339 wbs_adr_i[30]
*340 wbs_adr_i[31]
*341 wbs_adr_i[3]
*342 wbs_adr_i[4]
*343 wbs_adr_i[5]
*344 wbs_adr_i[6]
*345 wbs_adr_i[7]
*346 wbs_adr_i[8]
*347 wbs_adr_i[9]
*348 wbs_cyc_i
*349 wbs_dat_i[0]
*350 wbs_dat_i[10]
*351 wbs_dat_i[11]
*352 wbs_dat_i[12]
*353 wbs_dat_i[13]
*354 wbs_dat_i[14]
*355 wbs_dat_i[15]
*356 wbs_dat_i[16]
*357 wbs_dat_i[17]
*358 wbs_dat_i[18]
*359 wbs_dat_i[19]
*360 wbs_dat_i[1]
*361 wbs_dat_i[20]
*362 wbs_dat_i[21]
*363 wbs_dat_i[22]
*364 wbs_dat_i[23]
*365 wbs_dat_i[24]
*366 wbs_dat_i[25]
*367 wbs_dat_i[26]
*368 wbs_dat_i[27]
*369 wbs_dat_i[28]
*370 wbs_dat_i[29]
*371 wbs_dat_i[2]
*372 wbs_dat_i[30]
*373 wbs_dat_i[31]
*374 wbs_dat_i[3]
*375 wbs_dat_i[4]
*376 wbs_dat_i[5]
*377 wbs_dat_i[6]
*378 wbs_dat_i[7]
*379 wbs_dat_i[8]
*380 wbs_dat_i[9]
*381 wbs_dat_o[0]
*382 wbs_dat_o[10]
*383 wbs_dat_o[11]
*384 wbs_dat_o[12]
*385 wbs_dat_o[13]
*386 wbs_dat_o[14]
*387 wbs_dat_o[15]
*388 wbs_dat_o[16]
*389 wbs_dat_o[17]
*390 wbs_dat_o[18]
*391 wbs_dat_o[19]
*392 wbs_dat_o[1]
*393 wbs_dat_o[20]
*394 wbs_dat_o[21]
*395 wbs_dat_o[22]
*396 wbs_dat_o[23]
*397 wbs_dat_o[24]
*398 wbs_dat_o[25]
*399 wbs_dat_o[26]
*400 wbs_dat_o[27]
*401 wbs_dat_o[28]
*402 wbs_dat_o[29]
*403 wbs_dat_o[2]
*404 wbs_dat_o[30]
*405 wbs_dat_o[31]
*406 wbs_dat_o[3]
*407 wbs_dat_o[4]
*408 wbs_dat_o[5]
*409 wbs_dat_o[6]
*410 wbs_dat_o[7]
*411 wbs_dat_o[8]
*412 wbs_dat_o[9]
*413 wbs_sel_i[0]
*414 wbs_sel_i[1]
*415 wbs_sel_i[2]
*416 wbs_sel_i[3]
*417 wbs_stb_i
*418 wbs_we_i
*419 mprj

*PORTS
io_in[0] I
io_in[10] I
io_in[11] I
io_in[12] I
io_in[13] I
io_in[14] I
io_in[15] I
io_in[16] I
io_in[17] I
io_in[18] I
io_in[19] I
io_in[1] I
io_in[20] I
io_in[21] I
io_in[22] I
io_in[23] I
io_in[24] I
io_in[25] I
io_in[26] I
io_in[27] I
io_in[28] I
io_in[29] I
io_in[2] I
io_in[30] I
io_in[31] I
io_in[32] I
io_in[33] I
io_in[34] I
io_in[35] I
io_in[36] I
io_in[37] I
io_in[3] I
io_in[4] I
io_in[5] I
io_in[6] I
io_in[7] I
io_in[8] I
io_in[9] I
io_oeb[0] O
io_oeb[10] O
io_oeb[11] O
io_oeb[12] O
io_oeb[13] O
io_oeb[14] O
io_oeb[15] O
io_oeb[16] O
io_oeb[17] O
io_oeb[18] O
io_oeb[19] O
io_oeb[1] O
io_oeb[20] O
io_oeb[21] O
io_oeb[22] O
io_oeb[23] O
io_oeb[24] O
io_oeb[25] O
io_oeb[26] O
io_oeb[27] O
io_oeb[28] O
io_oeb[29] O
io_oeb[2] O
io_oeb[30] O
io_oeb[31] O
io_oeb[32] O
io_oeb[33] O
io_oeb[34] O
io_oeb[35] O
io_oeb[36] O
io_oeb[37] O
io_oeb[3] O
io_oeb[4] O
io_oeb[5] O
io_oeb[6] O
io_oeb[7] O
io_oeb[8] O
io_oeb[9] O
io_out[0] O
io_out[10] O
io_out[11] O
io_out[12] O
io_out[13] O
io_out[14] O
io_out[15] O
io_out[16] O
io_out[17] O
io_out[18] O
io_out[19] O
io_out[1] O
io_out[20] O
io_out[21] O
io_out[22] O
io_out[23] O
io_out[24] O
io_out[25] O
io_out[26] O
io_out[27] O
io_out[28] O
io_out[29] O
io_out[2] O
io_out[30] O
io_out[31] O
io_out[32] O
io_out[33] O
io_out[34] O
io_out[35] O
io_out[36] O
io_out[37] O
io_out[3] O
io_out[4] O
io_out[5] O
io_out[6] O
io_out[7] O
io_out[8] O
io_out[9] O
la_data_in[0] I
la_data_in[10] I
la_data_in[11] I
la_data_in[12] I
la_data_in[13] I
la_data_in[14] I
la_data_in[15] I
la_data_in[16] I
la_data_in[17] I
la_data_in[18] I
la_data_in[19] I
la_data_in[1] I
la_data_in[20] I
la_data_in[21] I
la_data_in[22] I
la_data_in[23] I
la_data_in[24] I
la_data_in[25] I
la_data_in[26] I
la_data_in[27] I
la_data_in[28] I
la_data_in[29] I
la_data_in[2] I
la_data_in[30] I
la_data_in[31] I
la_data_in[32] I
la_data_in[33] I
la_data_in[34] I
la_data_in[35] I
la_data_in[36] I
la_data_in[37] I
la_data_in[38] I
la_data_in[39] I
la_data_in[3] I
la_data_in[40] I
la_data_in[41] I
la_data_in[42] I
la_data_in[43] I
la_data_in[44] I
la_data_in[45] I
la_data_in[46] I
la_data_in[47] I
la_data_in[48] I
la_data_in[49] I
la_data_in[4] I
la_data_in[50] I
la_data_in[51] I
la_data_in[52] I
la_data_in[53] I
la_data_in[54] I
la_data_in[55] I
la_data_in[56] I
la_data_in[57] I
la_data_in[58] I
la_data_in[59] I
la_data_in[5] I
la_data_in[60] I
la_data_in[61] I
la_data_in[62] I
la_data_in[63] I
la_data_in[6] I
la_data_in[7] I
la_data_in[8] I
la_data_in[9] I
la_data_out[0] O
la_data_out[10] O
la_data_out[11] O
la_data_out[12] O
la_data_out[13] O
la_data_out[14] O
la_data_out[15] O
la_data_out[16] O
la_data_out[17] O
la_data_out[18] O
la_data_out[19] O
la_data_out[1] O
la_data_out[20] O
la_data_out[21] O
la_data_out[22] O
la_data_out[23] O
la_data_out[24] O
la_data_out[25] O
la_data_out[26] O
la_data_out[27] O
la_data_out[28] O
la_data_out[29] O
la_data_out[2] O
la_data_out[30] O
la_data_out[31] O
la_data_out[32] O
la_data_out[33] O
la_data_out[34] O
la_data_out[35] O
la_data_out[36] O
la_data_out[37] O
la_data_out[38] O
la_data_out[39] O
la_data_out[3] O
la_data_out[40] O
la_data_out[41] O
la_data_out[42] O
la_data_out[43] O
la_data_out[44] O
la_data_out[45] O
la_data_out[46] O
la_data_out[47] O
la_data_out[48] O
la_data_out[49] O
la_data_out[4] O
la_data_out[50] O
la_data_out[51] O
la_data_out[52] O
la_data_out[53] O
la_data_out[54] O
la_data_out[55] O
la_data_out[56] O
la_data_out[57] O
la_data_out[58] O
la_data_out[59] O
la_data_out[5] O
la_data_out[60] O
la_data_out[61] O
la_data_out[62] O
la_data_out[63] O
la_data_out[6] O
la_data_out[7] O
la_data_out[8] O
la_data_out[9] O
la_oenb[0] I
la_oenb[10] I
la_oenb[11] I
la_oenb[12] I
la_oenb[13] I
la_oenb[14] I
la_oenb[15] I
la_oenb[16] I
la_oenb[17] I
la_oenb[18] I
la_oenb[19] I
la_oenb[1] I
la_oenb[20] I
la_oenb[21] I
la_oenb[22] I
la_oenb[23] I
la_oenb[24] I
la_oenb[25] I
la_oenb[26] I
la_oenb[27] I
la_oenb[28] I
la_oenb[29] I
la_oenb[2] I
la_oenb[30] I
la_oenb[31] I
la_oenb[32] I
la_oenb[33] I
la_oenb[34] I
la_oenb[35] I
la_oenb[36] I
la_oenb[37] I
la_oenb[38] I
la_oenb[39] I
la_oenb[3] I
la_oenb[40] I
la_oenb[41] I
la_oenb[42] I
la_oenb[43] I
la_oenb[44] I
la_oenb[45] I
la_oenb[46] I
la_oenb[47] I
la_oenb[48] I
la_oenb[49] I
la_oenb[4] I
la_oenb[50] I
la_oenb[51] I
la_oenb[52] I
la_oenb[53] I
la_oenb[54] I
la_oenb[55] I
la_oenb[56] I
la_oenb[57] I
la_oenb[58] I
la_oenb[59] I
la_oenb[5] I
la_oenb[60] I
la_oenb[61] I
la_oenb[62] I
la_oenb[63] I
la_oenb[6] I
la_oenb[7] I
la_oenb[8] I
la_oenb[9] I
user_clock2 I
user_irq[0] O
user_irq[1] O
user_irq[2] O
wb_clk_i I
wb_rst_i I
wbs_ack_o O
wbs_adr_i[0] I
wbs_adr_i[10] I
wbs_adr_i[11] I
wbs_adr_i[12] I
wbs_adr_i[13] I
wbs_adr_i[14] I
wbs_adr_i[15] I
wbs_adr_i[16] I
wbs_adr_i[17] I
wbs_adr_i[18] I
wbs_adr_i[19] I
wbs_adr_i[1] I
wbs_adr_i[20] I
wbs_adr_i[21] I
wbs_adr_i[22] I
wbs_adr_i[23] I
wbs_adr_i[24] I
wbs_adr_i[25] I
wbs_adr_i[26] I
wbs_adr_i[27] I
wbs_adr_i[28] I
wbs_adr_i[29] I
wbs_adr_i[2] I
wbs_adr_i[30] I
wbs_adr_i[31] I
wbs_adr_i[3] I
wbs_adr_i[4] I
wbs_adr_i[5] I
wbs_adr_i[6] I
wbs_adr_i[7] I
wbs_adr_i[8] I
wbs_adr_i[9] I
wbs_cyc_i I
wbs_dat_i[0] I
wbs_dat_i[10] I
wbs_dat_i[11] I
wbs_dat_i[12] I
wbs_dat_i[13] I
wbs_dat_i[14] I
wbs_dat_i[15] I
wbs_dat_i[16] I
wbs_dat_i[17] I
wbs_dat_i[18] I
wbs_dat_i[19] I
wbs_dat_i[1] I
wbs_dat_i[20] I
wbs_dat_i[21] I
wbs_dat_i[22] I
wbs_dat_i[23] I
wbs_dat_i[24] I
wbs_dat_i[25] I
wbs_dat_i[26] I
wbs_dat_i[27] I
wbs_dat_i[28] I
wbs_dat_i[29] I
wbs_dat_i[2] I
wbs_dat_i[30] I
wbs_dat_i[31] I
wbs_dat_i[3] I
wbs_dat_i[4] I
wbs_dat_i[5] I
wbs_dat_i[6] I
wbs_dat_i[7] I
wbs_dat_i[8] I
wbs_dat_i[9] I
wbs_dat_o[0] O
wbs_dat_o[10] O
wbs_dat_o[11] O
wbs_dat_o[12] O
wbs_dat_o[13] O
wbs_dat_o[14] O
wbs_dat_o[15] O
wbs_dat_o[16] O
wbs_dat_o[17] O
wbs_dat_o[18] O
wbs_dat_o[19] O
wbs_dat_o[1] O
wbs_dat_o[20] O
wbs_dat_o[21] O
wbs_dat_o[22] O
wbs_dat_o[23] O
wbs_dat_o[24] O
wbs_dat_o[25] O
wbs_dat_o[26] O
wbs_dat_o[27] O
wbs_dat_o[28] O
wbs_dat_o[29] O
wbs_dat_o[2] O
wbs_dat_o[30] O
wbs_dat_o[31] O
wbs_dat_o[3] O
wbs_dat_o[4] O
wbs_dat_o[5] O
wbs_dat_o[6] O
wbs_dat_o[7] O
wbs_dat_o[8] O
wbs_dat_o[9] O
wbs_sel_i[0] I
wbs_sel_i[1] I
wbs_sel_i[2] I
wbs_sel_i[3] I
wbs_stb_i I
wbs_we_i I

*D_NET *1 0.0125275
*CONN
*P io_in[0] I
*I *419:io_in[0] I *D ADC_LogiCompilation
*CAP
1 io_in[0] 0.00331088
2 *419:io_in[0] 0.00295288
3 *1:11 0.00626375
*RES
1 io_in[0] *1:11 33.975 
2 *1:11 *419:io_in[0] 24.525 
*END

*D_NET *2 0.555699
*CONN
*P io_in[10] I
*I *419:io_in[10] I *D ADC_LogiCompilation
*CAP
1 io_in[10] 0.00106911
2 *419:io_in[10] 0.000185818
3 *2:13 0.129567
4 *2:11 0.129381
5 *2:9 0.014813
6 *2:7 0.0158821
7 *2:9 *3:9 0.177919
8 *2:9 *38:9 0.0868821
*RES
1 io_in[10] *2:7 12.465 
2 *2:7 *2:9 440.868 
3 *2:9 *2:11 4.5 
4 *2:11 *2:13 394.173 
5 *2:13 *419:io_in[10] 10.3468 
*END

*D_NET *3 0.641582
*CONN
*P io_in[11] I
*I *419:io_in[11] I *D ADC_LogiCompilation
*CAP
1 io_in[11] 0.00109069
2 *419:io_in[11] 9.14115e-05
3 *3:13 0.102252
4 *3:11 0.10216
5 *3:9 0.010329
6 *3:7 0.0114197
7 *3:9 *4:9 0.236321
8 *2:9 *3:9 0.177919
*RES
1 io_in[11] *3:7 12.645 
2 *3:7 *3:9 585.588 
3 *3:9 *3:11 4.5 
4 *3:11 *3:13 394.096 
5 *3:13 *419:io_in[11] 9.67179 
*END

*D_NET *4 0.791123
*CONN
*P io_in[12] I
*I *419:io_in[12] I *D ADC_LogiCompilation
*CAP
1 io_in[12] 0.00111227
2 *419:io_in[12] 0.00023424
3 *4:13 0.221546
4 *4:11 0.221311
5 *4:9 0.0545972
6 *4:7 0.0557095
7 *4:9 *37:11 0.000292025
8 *3:9 *4:9 0.236321
*RES
1 io_in[12] *4:7 12.825 
2 *4:7 *4:9 731.755 
3 *4:9 *4:11 4.5 
4 *4:11 *4:13 394.173 
5 *4:13 *419:io_in[12] 10.4304 
*END

*D_NET *12 0.0156173
*CONN
*P io_in[1] I
*I *419:io_in[1] I *D ADC_LogiCompilation
*CAP
1 io_in[1] 0.00405972
2 *419:io_in[1] 0.00374894
3 *12:11 0.00780867
*RES
1 io_in[1] *12:11 40.815 
2 *12:11 *419:io_in[1] 24.525 
*END

*D_NET *23 0.0170942
*CONN
*P io_in[2] I
*I *419:io_in[2] I *D ADC_LogiCompilation
*CAP
1 io_in[2] 0.00415621
2 *419:io_in[2] 0.00360886
3 *23:7 0.00776507
4 *419:io_in[2] *99:9 0.00156407
*RES
1 io_in[2] *23:7 36.945 
2 *23:7 *419:io_in[2] 35.595 
*END

*D_NET *32 0.0208638
*CONN
*P io_in[3] I
*I *419:io_in[3] I *D ADC_LogiCompilation
*CAP
1 io_in[3] 0.00415621
2 *419:io_in[3] 0.00405912
3 *32:7 0.00821533
4 *419:io_in[3] *108:9 0.00443317
*RES
1 io_in[3] *32:7 36.945 
2 *32:7 *419:io_in[3] 42.435 
*END

*D_NET *33 0.025822
*CONN
*P io_in[4] I
*I *419:io_in[4] I *D ADC_LogiCompilation
*CAP
1 io_in[4] 0.00417314
2 *419:io_in[4] 0.00444088
3 *33:7 0.00861401
4 *419:io_in[4] *108:9 0.00144008
5 *419:io_in[4] *109:9 0.00715384
*RES
1 io_in[4] *33:7 36.945 
2 *33:7 *419:io_in[4] 49.275 
*END

*D_NET *34 0.0309294
*CONN
*P io_in[5] I
*I *419:io_in[5] I *D ADC_LogiCompilation
*CAP
1 io_in[5] 0.00417314
2 *419:io_in[5] 0.000725555
3 *34:9 0.00424434
4 *34:7 0.00769192
5 *34:9 *109:9 0.00422008
6 *34:9 *110:9 0.00987439
*RES
1 io_in[5] *34:7 36.945 
2 *34:7 *34:9 45.81 
3 *34:9 *419:io_in[5] 10.305 
*END

*D_NET *35 0.0329393
*CONN
*P io_in[6] I
*I *419:io_in[6] I *D ADC_LogiCompilation
*CAP
1 io_in[6] 0.00416848
2 *419:io_in[6] 0.000747134
3 *35:9 0.00426939
4 *35:7 0.00769073
5 *35:9 *110:9 0.00337952
6 *35:9 *111:9 0.0126841
*RES
1 io_in[6] *35:7 36.765 
2 *35:7 *35:9 52.65 
3 *35:9 *419:io_in[6] 10.485 
*END

*D_NET *36 0.0339389
*CONN
*P io_in[7] I
*I *419:io_in[7] I *D ADC_LogiCompilation
*CAP
1 io_in[7] 0.00418541
2 *419:io_in[7] 0.000747119
3 *36:9 0.0045515
4 *36:7 0.00798979
5 *36:9 *111:9 0.00974206
6 *36:9 *112:9 0.00672302
*RES
1 io_in[7] *36:7 36.765 
2 *36:7 *36:9 59.49 
3 *36:9 *419:io_in[7] 10.485 
*END

*D_NET *37 0.211276
*CONN
*P io_in[8] I
*I *419:io_in[8] I *D ADC_LogiCompilation
*CAP
1 io_in[8] 0.00145167
2 *419:io_in[8] 0.00151073
3 *37:13 0.10404
4 *37:11 0.103981
5 *4:9 *37:11 0.000292025
*RES
1 io_in[8] *37:11 20.1568 
2 *37:11 *37:13 395.7 
3 *37:13 *419:io_in[8] 18.2732 
*END

*D_NET *38 0.347767
*CONN
*P io_in[9] I
*I *419:io_in[9] I *D ADC_LogiCompilation
*CAP
1 io_in[9] 0.00126197
2 *419:io_in[9] 0.000235397
3 *38:13 0.102558
4 *38:11 0.102323
5 *38:9 0.00785652
6 *38:7 0.00911849
7 *38:9 *113:14 0.0375317
8 *2:9 *38:9 0.0868821
*RES
1 io_in[9] *38:7 12.285 
2 *38:7 *38:9 215.148 
3 *38:9 *38:11 4.5 
4 *38:11 *38:13 394.478 
5 *38:13 *419:io_in[9] 10.7968 
*END

*D_NET *77 0.0160686
*CONN
*P io_out[0] O
*I *419:io_out[0] O *D ADC_LogiCompilation
*CAP
1 io_out[0] 0.00414395
2 *419:io_out[0] 0.00389035
3 *77:11 0.0080343
*RES
1 *419:io_out[0] *77:11 40.275 
2 *77:11 io_out[0] 32.625 
*END

*D_NET *88 0.0176853
*CONN
*P io_out[1] O
*I *419:io_out[1] O *D ADC_LogiCompilation
*CAP
1 io_out[1] 0.00416086
2 *419:io_out[1] 0.00468179
3 *88:11 0.00884265
*RES
1 *419:io_out[1] *88:11 47.115 
2 *88:11 io_out[1] 32.625 
*END

*D_NET *99 0.020552
*CONN
*P io_out[2] O
*I *419:io_out[2] O *D ADC_LogiCompilation
*CAP
1 io_out[2] 0.00419472
2 *419:io_out[2] 0.00529924
3 *99:9 0.00949396
4 *419:io_in[2] *99:9 0.00156407
*RES
1 *419:io_out[2] *99:9 49.455 
2 *99:9 io_out[2] 37.125 
*END

*D_NET *108 0.0252246
*CONN
*P io_out[3] O
*I *419:io_out[3] O *D ADC_LogiCompilation
*CAP
1 io_out[3] 0.00421164
2 *419:io_out[3] 0.000687049
3 *108:9 0.00898862
4 *108:7 0.00546403
5 *419:io_in[3] *108:9 0.00443317
6 *419:io_in[4] *108:9 0.00144008
*RES
1 *419:io_out[3] *108:7 10.125 
2 *108:7 *108:9 46.17 
3 *108:9 io_out[3] 37.125 
*END

*D_NET *109 0.030847
*CONN
*P io_out[4] O
*I *419:io_out[4] O *D ADC_LogiCompilation
*CAP
1 io_out[4] 0.00421164
2 *419:io_out[4] 0.000687049
3 *109:9 0.00904947
4 *109:7 0.00552487
5 *419:io_in[4] *109:9 0.00715384
6 *34:9 *109:9 0.00422008
*RES
1 *419:io_out[4] *109:7 10.125 
2 *109:7 *109:9 53.01 
3 *109:9 io_out[4] 37.125 
*END

*D_NET *110 0.0327894
*CONN
*P io_out[5] O
*I *419:io_out[5] O *D ADC_LogiCompilation
*CAP
1 io_out[5] 0.00421164
2 *419:io_out[5] 0.000687049
3 *110:9 0.0090807
4 *110:7 0.00555611
5 *34:9 *110:9 0.00987439
6 *35:9 *110:9 0.00337952
*RES
1 *419:io_out[5] *110:7 10.125 
2 *110:7 *110:9 59.85 
3 *110:9 io_out[5] 37.125 
*END

*D_NET *111 0.0428676
*CONN
*P io_out[6] O
*I *419:io_out[6] O *D ADC_LogiCompilation
*CAP
1 io_out[6] 0.00420699
2 *419:io_out[6] 0.000725555
3 *111:9 0.008928
4 *111:7 0.00544656
5 *111:9 *112:9 0.00113439
6 *35:9 *111:9 0.0126841
7 *36:9 *111:9 0.00974206
*RES
1 *419:io_out[6] *111:7 10.305 
2 *111:7 *111:9 66.69 
3 *111:9 io_out[6] 36.945 
*END

*D_NET *112 0.0332746
*CONN
*P io_out[7] O
*I *419:io_out[7] O *D ADC_LogiCompilation
*CAP
1 io_out[7] 0.00520536
2 *419:io_out[7] 0.000687049
3 *112:9 0.0120215
4 *112:7 0.00750322
5 *36:9 *112:9 0.00672302
6 *111:9 *112:9 0.00113439
*RES
1 *419:io_out[7] *112:7 10.125 
2 *112:7 *112:9 73.53 
3 *112:9 io_out[7] 37.125 
*END

*D_NET *113 0.49445
*CONN
*P io_out[8] O
*I *419:io_out[8] O *D ADC_LogiCompilation
*CAP
1 io_out[8] 0.00102595
2 *419:io_out[8] 9.06677e-05
3 *113:14 0.00692675
4 *113:12 0.0059008
5 *113:10 0.221442
6 *113:8 0.221532
7 *38:9 *113:14 0.0375317
*RES
1 *419:io_out[8] *113:8 9.66536 
2 *113:8 *113:10 394.325 
3 *113:10 *113:12 4.5 
4 *113:12 *113:14 93.1146 
5 *113:14 io_out[8] 12.105 
*END

*D_NET *114 0.372137
*CONN
*P io_out[9] O
*I *419:io_out[9] O *D ADC_LogiCompilation
*CAP
1 io_out[9] 0.117417
2 *419:io_out[9] 0.000719204
3 *114:11 0.117417
4 *114:9 0.0679321
5 *114:7 0.0686513
*RES
1 *419:io_out[9] *114:7 9.405 
2 *114:7 *114:9 318.69 
3 *114:9 *114:11 4.5 
4 *114:11 io_out[9] 942.885 
*END

*D_NET *313 0.113584
*CONN
*P wb_clk_i I
*I *419:wb_clk_i I *D ADC_LogiCompilation
*CAP
1 wb_clk_i 0.000149933
2 *419:wb_clk_i 0.000638518
3 *313:13 0.056642
4 *313:11 0.0561534
*RES
1 wb_clk_i *313:11 5.805 
2 *313:11 *313:13 450.27 
3 *313:13 *419:wb_clk_i 9.405 
*END
