*SPEF "ieee 1481-1999"
*DESIGN "ADC_LogiCompilation"
*DATE "11:11:11 Fri 11 11, 1111"
*VENDOR "OpenRCX"
*PROGRAM "Parallel Extraction"
*VERSION "1.0"
*DESIGN_FLOW "NAME_SCOPE LOCAL" "PIN_CAP NONE"
*DIVIDER /
*DELIMITER :
*BUS_DELIMITER []
*T_UNIT 1 NS
*C_UNIT 1 PF
*R_UNIT 1 OHM
*L_UNIT 1 HENRY

*NAME_MAP
*1 io_in[0]
*2 io_in[10]
*3 io_in[11]
*4 io_in[12]
*5 io_in[1]
*6 io_in[2]
*7 io_in[3]
*8 io_in[4]
*9 io_in[5]
*10 io_in[6]
*11 io_in[7]
*12 io_in[8]
*13 io_in[9]
*14 io_out[0]
*15 io_out[1]
*16 io_out[2]
*17 io_out[3]
*18 io_out[4]
*19 io_out[5]
*20 io_out[6]
*21 io_out[7]
*22 io_out[8]
*23 io_out[9]
*26 wb_clk_i
*27 CompBus
*28 Flash_Logic\.B\[0\]
*29 Flash_Logic\.B\[1\]
*30 Flash_Logic\.B\[2\]
*31 Flash_Logic\.Bx\[0\]
*32 Flash_Logic\.Bx\[1\]
*33 Flash_Logic\.Bx\[2\]
*34 Flash_Logic\.Samp
*35 SAR_Logic_Conv\.Comp
*36 SAR_Logic_Conv\.FF_B0\.B
*37 SAR_Logic_Conv\.FF_B0\.clk
*38 SAR_Logic_Conv\.FF_B0\.set
*39 SAR_Logic_Conv\.FF_B1\.B
*40 SAR_Logic_Conv\.FF_B1\.set
*41 SAR_Logic_Conv\.FF_B2\.B
*42 SAR_Logic_Conv\.FF_B2\.set
*43 SAR_Logic_Conv\.FF_B3\.B
*44 SAR_Logic_Conv\.FF_B3\.set
*45 SAR_Logic_Conv\.FF_B4\.B
*46 SAR_Logic_Conv\.FF_B4\.set
*47 SAR_Logic_Conv\.FF_B5\.B
*48 SAR_Logic_Conv\.FF_B5\.set
*49 SAR_Logic_Conv\.FF_B6\.B
*50 SAR_Logic_Conv\.FF_B6\.set
*51 SAR_Logic_Conv\.FF_B7\.B
*52 SAR_Logic_Conv\.FF_B7\.set
*53 SAR_Logic_Conv\.FF_B8\.B
*54 SAR_Logic_Conv\.FF_B8\.set
*55 SAR_Logic_Conv\.FF_B9\.B
*56 SAR_Logic_Conv\.FF_B9\.set
*57 SAR_Logic_Monot\.FF_B0\.B
*58 SAR_Logic_Monot\.FF_B0\.clkx
*59 SAR_Logic_Monot\.FF_B1\.B
*60 SAR_Logic_Monot\.FF_B1\.clkx
*61 SAR_Logic_Monot\.FF_B2\.B
*62 SAR_Logic_Monot\.FF_B2\.clkx
*63 SAR_Logic_Monot\.FF_B3\.B
*64 SAR_Logic_Monot\.FF_B3\.clkx
*65 SAR_Logic_Monot\.FF_B4\.B
*66 SAR_Logic_Monot\.FF_B4\.clkx
*67 SAR_Logic_Monot\.FF_B5\.B
*68 SAR_Logic_Monot\.FF_B5\.clkx
*69 SAR_Logic_Monot\.FF_B6\.B
*70 SAR_Logic_Monot\.FF_B6\.clkx
*71 SAR_Logic_Monot\.FF_B7\.B
*72 SAR_Logic_Monot\.FF_B7\.clkx
*73 SAR_Logic_Monot\.FF_B8\.B
*74 SAR_Logic_Monot\.FF_B8\.clkx
*75 SAR_Logic_Monot\.FF_B9\.B
*76 SAR_Logic_Monot\.FF_B9\.clkx
*77 _000_
*78 _001_
*79 _002_
*80 _003_
*81 _004_
*82 _005_
*83 _006_
*84 _007_
*85 _008_
*86 _009_
*87 _010_
*88 _011_
*89 _012_
*90 _013_
*91 _014_
*92 _015_
*93 _016_
*94 _017_
*95 _018_
*96 _019_
*97 _020_
*98 _021_
*99 _022_
*100 _023_
*101 _024_
*102 _025_
*103 _026_
*104 _027_
*105 _028_
*106 _029_
*107 _030_
*108 _031_
*109 _032_
*110 _033_
*111 _034_
*112 _035_
*113 _036_
*114 _037_
*115 _038_
*116 _039_
*117 _040_
*118 _041_
*119 _042_
*120 _043_
*121 _044_
*122 _045_
*123 _046_
*124 _047_
*125 _048_
*126 _049_
*127 _050_
*128 _051_
*129 _052_
*130 _053_
*131 _054_
*132 _055_
*133 _056_
*134 _057_
*135 _058_
*136 _059_
*137 _060_
*138 _061_
*139 _062_
*140 _063_
*141 _064_
*142 _065_
*143 _066_
*144 _067_
*145 _068_
*146 _069_
*147 _070_
*148 _071_
*149 _072_
*150 _073_
*151 _074_
*152 _075_
*153 _076_
*154 _077_
*155 _078_
*156 _079_
*157 _080_
*158 _081_
*159 _082_
*160 _083_
*161 _084_
*162 _085_
*163 _086_
*164 _087_
*165 _088_
*166 _089_
*167 _090_
*168 _091_
*169 _092_
*170 _093_
*171 _094_
*172 _095_
*173 _096_
*174 _097_
*175 _098_
*176 _099_
*177 _100_
*178 _101_
*179 _102_
*180 _103_
*181 _104_
*182 _105_
*183 _106_
*184 _107_
*185 _108_
*186 _109_
*187 _110_
*188 _111_
*189 _112_
*190 clknet_0_wb_clk_i
*191 clknet_1_0__leaf_wb_clk_i
*192 clknet_1_1__leaf_wb_clk_i
*193 net1
*194 net10
*195 net11
*196 net12
*197 net13
*198 net14
*199 net15
*200 net16
*201 net17
*202 net18
*203 net19
*204 net2
*205 net20
*206 net21
*207 net22
*208 net23
*209 net24
*210 net25
*211 net26
*212 net27
*213 net28
*214 net29
*215 net3
*216 net30
*217 net31
*218 net32
*219 net33
*220 net34
*221 net35
*222 net36
*223 net37
*224 net38
*225 net39
*226 net4
*227 net40
*228 net41
*229 net42
*230 net43
*231 net44
*232 net45
*233 net46
*234 net47
*235 net48
*236 net49
*237 net5
*238 net6
*239 net7
*240 net8
*241 net9
*242 ANTENNA__133__I
*243 ANTENNA__134__I
*244 ANTENNA__137__A1
*245 ANTENNA__137__A2
*246 ANTENNA__138__A2
*247 ANTENNA__140__A2
*248 ANTENNA__143__I
*249 ANTENNA__145__C
*250 ANTENNA__148__A2
*251 ANTENNA__152__I
*252 ANTENNA__166__A2
*253 ANTENNA__169__A2
*254 ANTENNA__172__A2
*255 ANTENNA__173__I
*256 ANTENNA__174__A1
*257 ANTENNA__174__A2
*258 ANTENNA__174__A3
*259 ANTENNA__175__A1
*260 ANTENNA__175__A2
*261 ANTENNA__176__I
*262 ANTENNA__177__A1
*263 ANTENNA__177__A2
*264 ANTENNA__178__A1
*265 ANTENNA__178__A3
*266 ANTENNA__179__A1
*267 ANTENNA__179__A2
*268 ANTENNA__181__I
*269 ANTENNA__182__A1
*270 ANTENNA__182__A2
*271 ANTENNA__185__I
*272 ANTENNA__186__A1
*273 ANTENNA__186__A2
*274 ANTENNA__219__I
*275 ANTENNA__220__I
*276 ANTENNA__221__I
*277 ANTENNA__222__I
*278 ANTENNA__241__CLKN
*279 ANTENNA__242__CLK
*280 ANTENNA__243__CLKN
*281 ANTENNA__253__CLK
*282 ANTENNA__254__CLK
*283 ANTENNA__255__CLK
*284 ANTENNA__257__CLK
*285 ANTENNA__258__CLK
*286 ANTENNA__259__CLK
*287 ANTENNA__260__CLK
*288 ANTENNA__261__CLK
*289 ANTENNA__262__CLK
*290 ANTENNA__263__CLK
*291 ANTENNA__264__CLK
*292 ANTENNA__265__CLK
*293 ANTENNA__266__CLK
*294 ANTENNA__267__CLK
*295 ANTENNA__268__CLK
*296 ANTENNA__269__CLK
*297 ANTENNA__270__CLK
*298 ANTENNA__270__D
*299 ANTENNA__271__CLK
*300 ANTENNA__272__CLK
*301 ANTENNA__273__CLK
*302 ANTENNA__274__CLK
*303 ANTENNA__275__CLK
*304 ANTENNA__276__CLK
*305 ANTENNA__277__CLK
*306 ANTENNA__281__CLK
*307 ANTENNA_clkbuf_0_wb_clk_i_I
*308 ANTENNA_input10_I
*309 ANTENNA_input1_I
*310 ANTENNA_input2_I
*311 ANTENNA_input3_I
*312 ANTENNA_input4_I
*313 ANTENNA_input5_I
*314 ANTENNA_input6_I
*315 ANTENNA_input7_I
*316 ANTENNA_input8_I
*317 ANTENNA_input9_I
*318 ANTENNA_output11_I
*319 ANTENNA_output12_I
*320 ANTENNA_output13_I
*321 ANTENNA_output15_I
*322 ANTENNA_output16_I
*323 ANTENNA_output17_I
*324 ANTENNA_output18_I
*325 ANTENNA_output19_I
*326 ANTENNA_output20_I
*327 ANTENNA_wire21_I
*328 ANTENNA_wire23_I
*329 ANTENNA_wire24_I
*330 FILLER_0_0_1022
*331 FILLER_0_0_104
*332 FILLER_0_0_1056
*333 FILLER_0_0_1090
*334 FILLER_0_0_1124
*335 FILLER_0_0_1158
*336 FILLER_0_0_1192
*337 FILLER_0_0_1226
*338 FILLER_0_0_1260
*339 FILLER_0_0_1294
*340 FILLER_0_0_1328
*341 FILLER_0_0_1362
*342 FILLER_0_0_138
*343 FILLER_0_0_1396
*344 FILLER_0_0_1430
*345 FILLER_0_0_1464
*346 FILLER_0_0_1498
*347 FILLER_0_0_1532
*348 FILLER_0_0_1566
*349 FILLER_0_0_1600
*350 FILLER_0_0_1634
*351 FILLER_0_0_1668
*352 FILLER_0_0_1702
*353 FILLER_0_0_172
*354 FILLER_0_0_1736
*355 FILLER_0_0_1770
*356 FILLER_0_0_1804
*357 FILLER_0_0_1838
*358 FILLER_0_0_1872
*359 FILLER_0_0_1906
*360 FILLER_0_0_1940
*361 FILLER_0_0_1974
*362 FILLER_0_0_2
*363 FILLER_0_0_2008
*364 FILLER_0_0_2042
*365 FILLER_0_0_206
*366 FILLER_0_0_2076
*367 FILLER_0_0_2110
*368 FILLER_0_0_2144
*369 FILLER_0_0_2178
*370 FILLER_0_0_2212
*371 FILLER_0_0_2246
*372 FILLER_0_0_2280
*373 FILLER_0_0_2314
*374 FILLER_0_0_2348
*375 FILLER_0_0_2382
*376 FILLER_0_0_240
*377 FILLER_0_0_2416
*378 FILLER_0_0_2450
*379 FILLER_0_0_2484
*380 FILLER_0_0_2518
*381 FILLER_0_0_2552
*382 FILLER_0_0_2586
*383 FILLER_0_0_2620
*384 FILLER_0_0_2654
*385 FILLER_0_0_2688
*386 FILLER_0_0_2722
*387 FILLER_0_0_274
*388 FILLER_0_0_2756
*389 FILLER_0_0_2790
*390 FILLER_0_0_2824
*391 FILLER_0_0_2858
*392 FILLER_0_0_2892
*393 FILLER_0_0_2926
*394 FILLER_0_0_2960
*395 FILLER_0_0_2994
*396 FILLER_0_0_3028
*397 FILLER_0_0_3062
*398 FILLER_0_0_308
*399 FILLER_0_0_3096
*400 FILLER_0_0_3130
*401 FILLER_0_0_3164
*402 FILLER_0_0_3198
*403 FILLER_0_0_3232
*404 FILLER_0_0_3266
*405 FILLER_0_0_3300
*406 FILLER_0_0_3334
*407 FILLER_0_0_3368
*408 FILLER_0_0_3402
*409 FILLER_0_0_342
*410 FILLER_0_0_3436
*411 FILLER_0_0_3470
*412 FILLER_0_0_3504
*413 FILLER_0_0_3538
*414 FILLER_0_0_3572
*415 FILLER_0_0_36
*416 FILLER_0_0_3606
*417 FILLER_0_0_3640
*418 FILLER_0_0_3674
*419 FILLER_0_0_3708
*420 FILLER_0_0_3742
*421 FILLER_0_0_376
*422 FILLER_0_0_3776
*423 FILLER_0_0_3810
*424 FILLER_0_0_3844
*425 FILLER_0_0_3878
*426 FILLER_0_0_3912
*427 FILLER_0_0_3946
*428 FILLER_0_0_3980
*429 FILLER_0_0_4014
*430 FILLER_0_0_4048
*431 FILLER_0_0_4082
*432 FILLER_0_0_410
*433 FILLER_0_0_4116
*434 FILLER_0_0_4150
*435 FILLER_0_0_4184
*436 FILLER_0_0_4218
*437 FILLER_0_0_4252
*438 FILLER_0_0_4286
*439 FILLER_0_0_4320
*440 FILLER_0_0_4354
*441 FILLER_0_0_4388
*442 FILLER_0_0_4422
*443 FILLER_0_0_444
*444 FILLER_0_0_4456
*445 FILLER_0_0_4490
*446 FILLER_0_0_4524
*447 FILLER_0_0_4558
*448 FILLER_0_0_4592
*449 FILLER_0_0_4626
*450 FILLER_0_0_4660
*451 FILLER_0_0_4694
*452 FILLER_0_0_4728
*453 FILLER_0_0_4762
*454 FILLER_0_0_478
*455 FILLER_0_0_4796
*456 FILLER_0_0_4830
*457 FILLER_0_0_4864
*458 FILLER_0_0_4898
*459 FILLER_0_0_4932
*460 FILLER_0_0_4966
*461 FILLER_0_0_512
*462 FILLER_0_0_546
*463 FILLER_0_0_580
*464 FILLER_0_0_614
*465 FILLER_0_0_648
*466 FILLER_0_0_682
*467 FILLER_0_0_70
*468 FILLER_0_0_716
*469 FILLER_0_0_750
*470 FILLER_0_0_784
*471 FILLER_0_0_818
*472 FILLER_0_0_852
*473 FILLER_0_0_886
*474 FILLER_0_0_920
*475 FILLER_0_0_954
*476 FILLER_0_0_988
*477 FILLER_0_100_101
*478 FILLER_0_100_1011
*479 FILLER_0_100_1017
*480 FILLER_0_100_107
*481 FILLER_0_100_1081
*482 FILLER_0_100_1087
*483 FILLER_0_100_1151
*484 FILLER_0_100_1157
*485 FILLER_0_100_1221
*486 FILLER_0_100_1227
*487 FILLER_0_100_1291
*488 FILLER_0_100_1297
*489 FILLER_0_100_1361
*490 FILLER_0_100_1367
*491 FILLER_0_100_1431
*492 FILLER_0_100_1437
*493 FILLER_0_100_1501
*494 FILLER_0_100_1507
*495 FILLER_0_100_1571
*496 FILLER_0_100_1577
*497 FILLER_0_100_1641
*498 FILLER_0_100_1647
*499 FILLER_0_100_171
*500 FILLER_0_100_1711
*501 FILLER_0_100_1717
*502 FILLER_0_100_177
*503 FILLER_0_100_1781
*504 FILLER_0_100_1787
*505 FILLER_0_100_1851
*506 FILLER_0_100_1857
*507 FILLER_0_100_1921
*508 FILLER_0_100_1927
*509 FILLER_0_100_1991
*510 FILLER_0_100_1997
*511 FILLER_0_100_2
*512 FILLER_0_100_2061
*513 FILLER_0_100_2067
*514 FILLER_0_100_2131
*515 FILLER_0_100_2137
*516 FILLER_0_100_2201
*517 FILLER_0_100_2207
*518 FILLER_0_100_2271
*519 FILLER_0_100_2277
*520 FILLER_0_100_2341
*521 FILLER_0_100_2347
*522 FILLER_0_100_241
*523 FILLER_0_100_2411
*524 FILLER_0_100_2417
*525 FILLER_0_100_247
*526 FILLER_0_100_2481
*527 FILLER_0_100_2487
*528 FILLER_0_100_2551
*529 FILLER_0_100_2557
*530 FILLER_0_100_2621
*531 FILLER_0_100_2627
*532 FILLER_0_100_2691
*533 FILLER_0_100_2697
*534 FILLER_0_100_2761
*535 FILLER_0_100_2767
*536 FILLER_0_100_2831
*537 FILLER_0_100_2837
*538 FILLER_0_100_2901
*539 FILLER_0_100_2907
*540 FILLER_0_100_2971
*541 FILLER_0_100_2977
*542 FILLER_0_100_3041
*543 FILLER_0_100_3047
*544 FILLER_0_100_311
*545 FILLER_0_100_3111
*546 FILLER_0_100_3117
*547 FILLER_0_100_317
*548 FILLER_0_100_3181
*549 FILLER_0_100_3187
*550 FILLER_0_100_3251
*551 FILLER_0_100_3257
*552 FILLER_0_100_3321
*553 FILLER_0_100_3327
*554 FILLER_0_100_3391
*555 FILLER_0_100_3397
*556 FILLER_0_100_34
*557 FILLER_0_100_3461
*558 FILLER_0_100_3467
*559 FILLER_0_100_3531
*560 FILLER_0_100_3537
*561 FILLER_0_100_3601
*562 FILLER_0_100_3607
*563 FILLER_0_100_3671
*564 FILLER_0_100_3677
*565 FILLER_0_100_37
*566 FILLER_0_100_3741
*567 FILLER_0_100_3747
*568 FILLER_0_100_381
*569 FILLER_0_100_3811
*570 FILLER_0_100_3817
*571 FILLER_0_100_387
*572 FILLER_0_100_3881
*573 FILLER_0_100_3887
*574 FILLER_0_100_3951
*575 FILLER_0_100_3957
*576 FILLER_0_100_4021
*577 FILLER_0_100_4027
*578 FILLER_0_100_4091
*579 FILLER_0_100_4097
*580 FILLER_0_100_4161
*581 FILLER_0_100_4167
*582 FILLER_0_100_4231
*583 FILLER_0_100_4237
*584 FILLER_0_100_4301
*585 FILLER_0_100_4307
*586 FILLER_0_100_4371
*587 FILLER_0_100_4377
*588 FILLER_0_100_4441
*589 FILLER_0_100_4447
*590 FILLER_0_100_451
*591 FILLER_0_100_4511
*592 FILLER_0_100_4517
*593 FILLER_0_100_457
*594 FILLER_0_100_4581
*595 FILLER_0_100_4587
*596 FILLER_0_100_4651
*597 FILLER_0_100_4657
*598 FILLER_0_100_4721
*599 FILLER_0_100_4727
*600 FILLER_0_100_4791
*601 FILLER_0_100_4797
*602 FILLER_0_100_4861
*603 FILLER_0_100_4867
*604 FILLER_0_100_4931
*605 FILLER_0_100_4937
*606 FILLER_0_100_4969
*607 FILLER_0_100_4973
*608 FILLER_0_100_521
*609 FILLER_0_100_527
*610 FILLER_0_100_591
*611 FILLER_0_100_597
*612 FILLER_0_100_661
*613 FILLER_0_100_667
*614 FILLER_0_100_731
*615 FILLER_0_100_737
*616 FILLER_0_100_801
*617 FILLER_0_100_807
*618 FILLER_0_100_871
*619 FILLER_0_100_877
*620 FILLER_0_100_941
*621 FILLER_0_100_947
*622 FILLER_0_101_1046
*623 FILLER_0_101_1052
*624 FILLER_0_101_1116
*625 FILLER_0_101_1122
*626 FILLER_0_101_1186
*627 FILLER_0_101_1192
*628 FILLER_0_101_1256
*629 FILLER_0_101_1262
*630 FILLER_0_101_1326
*631 FILLER_0_101_1332
*632 FILLER_0_101_136
*633 FILLER_0_101_1396
*634 FILLER_0_101_1402
*635 FILLER_0_101_142
*636 FILLER_0_101_1466
*637 FILLER_0_101_1472
*638 FILLER_0_101_1536
*639 FILLER_0_101_1542
*640 FILLER_0_101_1606
*641 FILLER_0_101_1612
*642 FILLER_0_101_1676
*643 FILLER_0_101_1682
*644 FILLER_0_101_1746
*645 FILLER_0_101_1752
*646 FILLER_0_101_1816
*647 FILLER_0_101_1822
*648 FILLER_0_101_1886
*649 FILLER_0_101_1892
*650 FILLER_0_101_1956
*651 FILLER_0_101_1962
*652 FILLER_0_101_2
*653 FILLER_0_101_2026
*654 FILLER_0_101_2032
*655 FILLER_0_101_206
*656 FILLER_0_101_2096
*657 FILLER_0_101_2102
*658 FILLER_0_101_212
*659 FILLER_0_101_2166
*660 FILLER_0_101_2172
*661 FILLER_0_101_2236
*662 FILLER_0_101_2242
*663 FILLER_0_101_2306
*664 FILLER_0_101_2312
*665 FILLER_0_101_2376
*666 FILLER_0_101_2382
*667 FILLER_0_101_2446
*668 FILLER_0_101_2452
*669 FILLER_0_101_2516
*670 FILLER_0_101_2522
*671 FILLER_0_101_2586
*672 FILLER_0_101_2592
*673 FILLER_0_101_2656
*674 FILLER_0_101_2662
*675 FILLER_0_101_2726
*676 FILLER_0_101_2732
*677 FILLER_0_101_276
*678 FILLER_0_101_2796
*679 FILLER_0_101_2802
*680 FILLER_0_101_282
*681 FILLER_0_101_2866
*682 FILLER_0_101_2872
*683 FILLER_0_101_2936
*684 FILLER_0_101_2942
*685 FILLER_0_101_3006
*686 FILLER_0_101_3012
*687 FILLER_0_101_3076
*688 FILLER_0_101_3082
*689 FILLER_0_101_3146
*690 FILLER_0_101_3152
*691 FILLER_0_101_3216
*692 FILLER_0_101_3222
*693 FILLER_0_101_3286
*694 FILLER_0_101_3292
*695 FILLER_0_101_3356
*696 FILLER_0_101_3362
*697 FILLER_0_101_3426
*698 FILLER_0_101_3432
*699 FILLER_0_101_346
*700 FILLER_0_101_3496
*701 FILLER_0_101_3502
*702 FILLER_0_101_352
*703 FILLER_0_101_3566
*704 FILLER_0_101_3572
*705 FILLER_0_101_3636
*706 FILLER_0_101_3642
*707 FILLER_0_101_3706
*708 FILLER_0_101_3712
*709 FILLER_0_101_3776
*710 FILLER_0_101_3782
*711 FILLER_0_101_3846
*712 FILLER_0_101_3852
*713 FILLER_0_101_3916
*714 FILLER_0_101_3922
*715 FILLER_0_101_3986
*716 FILLER_0_101_3992
*717 FILLER_0_101_4056
*718 FILLER_0_101_4062
*719 FILLER_0_101_4126
*720 FILLER_0_101_4132
*721 FILLER_0_101_416
*722 FILLER_0_101_4196
*723 FILLER_0_101_4202
*724 FILLER_0_101_422
*725 FILLER_0_101_4266
*726 FILLER_0_101_4272
*727 FILLER_0_101_4336
*728 FILLER_0_101_4342
*729 FILLER_0_101_4406
*730 FILLER_0_101_4412
*731 FILLER_0_101_4476
*732 FILLER_0_101_4482
*733 FILLER_0_101_4546
*734 FILLER_0_101_4552
*735 FILLER_0_101_4616
*736 FILLER_0_101_4622
*737 FILLER_0_101_4686
*738 FILLER_0_101_4692
*739 FILLER_0_101_4756
*740 FILLER_0_101_4762
*741 FILLER_0_101_4826
*742 FILLER_0_101_4832
*743 FILLER_0_101_486
*744 FILLER_0_101_4896
*745 FILLER_0_101_4902
*746 FILLER_0_101_492
*747 FILLER_0_101_4966
*748 FILLER_0_101_4972
*749 FILLER_0_101_556
*750 FILLER_0_101_562
*751 FILLER_0_101_626
*752 FILLER_0_101_632
*753 FILLER_0_101_66
*754 FILLER_0_101_696
*755 FILLER_0_101_702
*756 FILLER_0_101_72
*757 FILLER_0_101_766
*758 FILLER_0_101_772
*759 FILLER_0_101_836
*760 FILLER_0_101_842
*761 FILLER_0_101_906
*762 FILLER_0_101_912
*763 FILLER_0_101_976
*764 FILLER_0_101_982
*765 FILLER_0_102_101
*766 FILLER_0_102_1011
*767 FILLER_0_102_1017
*768 FILLER_0_102_107
*769 FILLER_0_102_1081
*770 FILLER_0_102_1087
*771 FILLER_0_102_1151
*772 FILLER_0_102_1157
*773 FILLER_0_102_1221
*774 FILLER_0_102_1227
*775 FILLER_0_102_1291
*776 FILLER_0_102_1297
*777 FILLER_0_102_1361
*778 FILLER_0_102_1367
*779 FILLER_0_102_1431
*780 FILLER_0_102_1437
*781 FILLER_0_102_1501
*782 FILLER_0_102_1507
*783 FILLER_0_102_1571
*784 FILLER_0_102_1577
*785 FILLER_0_102_1641
*786 FILLER_0_102_1647
*787 FILLER_0_102_171
*788 FILLER_0_102_1711
*789 FILLER_0_102_1717
*790 FILLER_0_102_177
*791 FILLER_0_102_1781
*792 FILLER_0_102_1787
*793 FILLER_0_102_1851
*794 FILLER_0_102_1857
*795 FILLER_0_102_1921
*796 FILLER_0_102_1927
*797 FILLER_0_102_1991
*798 FILLER_0_102_1997
*799 FILLER_0_102_2
*800 FILLER_0_102_2061
*801 FILLER_0_102_2067
*802 FILLER_0_102_2131
*803 FILLER_0_102_2137
*804 FILLER_0_102_2201
*805 FILLER_0_102_2207
*806 FILLER_0_102_2271
*807 FILLER_0_102_2277
*808 FILLER_0_102_2341
*809 FILLER_0_102_2347
*810 FILLER_0_102_241
*811 FILLER_0_102_2411
*812 FILLER_0_102_2417
*813 FILLER_0_102_247
*814 FILLER_0_102_2481
*815 FILLER_0_102_2487
*816 FILLER_0_102_2551
*817 FILLER_0_102_2557
*818 FILLER_0_102_2621
*819 FILLER_0_102_2627
*820 FILLER_0_102_2691
*821 FILLER_0_102_2697
*822 FILLER_0_102_2761
*823 FILLER_0_102_2767
*824 FILLER_0_102_2831
*825 FILLER_0_102_2837
*826 FILLER_0_102_2901
*827 FILLER_0_102_2907
*828 FILLER_0_102_2971
*829 FILLER_0_102_2977
*830 FILLER_0_102_3041
*831 FILLER_0_102_3047
*832 FILLER_0_102_311
*833 FILLER_0_102_3111
*834 FILLER_0_102_3117
*835 FILLER_0_102_317
*836 FILLER_0_102_3181
*837 FILLER_0_102_3187
*838 FILLER_0_102_3251
*839 FILLER_0_102_3257
*840 FILLER_0_102_3321
*841 FILLER_0_102_3327
*842 FILLER_0_102_3391
*843 FILLER_0_102_3397
*844 FILLER_0_102_34
*845 FILLER_0_102_3461
*846 FILLER_0_102_3467
*847 FILLER_0_102_3531
*848 FILLER_0_102_3537
*849 FILLER_0_102_3601
*850 FILLER_0_102_3607
*851 FILLER_0_102_3671
*852 FILLER_0_102_3677
*853 FILLER_0_102_37
*854 FILLER_0_102_3741
*855 FILLER_0_102_3747
*856 FILLER_0_102_381
*857 FILLER_0_102_3811
*858 FILLER_0_102_3817
*859 FILLER_0_102_387
*860 FILLER_0_102_3881
*861 FILLER_0_102_3887
*862 FILLER_0_102_3951
*863 FILLER_0_102_3957
*864 FILLER_0_102_4021
*865 FILLER_0_102_4027
*866 FILLER_0_102_4091
*867 FILLER_0_102_4097
*868 FILLER_0_102_4161
*869 FILLER_0_102_4167
*870 FILLER_0_102_4231
*871 FILLER_0_102_4237
*872 FILLER_0_102_4301
*873 FILLER_0_102_4307
*874 FILLER_0_102_4371
*875 FILLER_0_102_4377
*876 FILLER_0_102_4441
*877 FILLER_0_102_4447
*878 FILLER_0_102_451
*879 FILLER_0_102_4511
*880 FILLER_0_102_4517
*881 FILLER_0_102_457
*882 FILLER_0_102_4581
*883 FILLER_0_102_4587
*884 FILLER_0_102_4651
*885 FILLER_0_102_4657
*886 FILLER_0_102_4721
*887 FILLER_0_102_4727
*888 FILLER_0_102_4791
*889 FILLER_0_102_4797
*890 FILLER_0_102_4861
*891 FILLER_0_102_4867
*892 FILLER_0_102_4931
*893 FILLER_0_102_4937
*894 FILLER_0_102_4969
*895 FILLER_0_102_4973
*896 FILLER_0_102_521
*897 FILLER_0_102_527
*898 FILLER_0_102_591
*899 FILLER_0_102_597
*900 FILLER_0_102_661
*901 FILLER_0_102_667
*902 FILLER_0_102_731
*903 FILLER_0_102_737
*904 FILLER_0_102_801
*905 FILLER_0_102_807
*906 FILLER_0_102_871
*907 FILLER_0_102_877
*908 FILLER_0_102_941
*909 FILLER_0_102_947
*910 FILLER_0_103_1046
*911 FILLER_0_103_1052
*912 FILLER_0_103_1116
*913 FILLER_0_103_1122
*914 FILLER_0_103_1186
*915 FILLER_0_103_1192
*916 FILLER_0_103_1256
*917 FILLER_0_103_1262
*918 FILLER_0_103_1326
*919 FILLER_0_103_1332
*920 FILLER_0_103_136
*921 FILLER_0_103_1396
*922 FILLER_0_103_1402
*923 FILLER_0_103_142
*924 FILLER_0_103_1466
*925 FILLER_0_103_1472
*926 FILLER_0_103_1536
*927 FILLER_0_103_1542
*928 FILLER_0_103_1606
*929 FILLER_0_103_1612
*930 FILLER_0_103_1676
*931 FILLER_0_103_1682
*932 FILLER_0_103_1746
*933 FILLER_0_103_1752
*934 FILLER_0_103_1816
*935 FILLER_0_103_1822
*936 FILLER_0_103_1886
*937 FILLER_0_103_1892
*938 FILLER_0_103_1956
*939 FILLER_0_103_1962
*940 FILLER_0_103_2
*941 FILLER_0_103_2026
*942 FILLER_0_103_2032
*943 FILLER_0_103_206
*944 FILLER_0_103_2096
*945 FILLER_0_103_2102
*946 FILLER_0_103_212
*947 FILLER_0_103_2166
*948 FILLER_0_103_2172
*949 FILLER_0_103_2236
*950 FILLER_0_103_2242
*951 FILLER_0_103_2306
*952 FILLER_0_103_2312
*953 FILLER_0_103_2376
*954 FILLER_0_103_2382
*955 FILLER_0_103_2446
*956 FILLER_0_103_2452
*957 FILLER_0_103_2516
*958 FILLER_0_103_2522
*959 FILLER_0_103_2586
*960 FILLER_0_103_2592
*961 FILLER_0_103_2656
*962 FILLER_0_103_2662
*963 FILLER_0_103_2726
*964 FILLER_0_103_2732
*965 FILLER_0_103_276
*966 FILLER_0_103_2796
*967 FILLER_0_103_2802
*968 FILLER_0_103_282
*969 FILLER_0_103_2866
*970 FILLER_0_103_2872
*971 FILLER_0_103_2936
*972 FILLER_0_103_2942
*973 FILLER_0_103_3006
*974 FILLER_0_103_3012
*975 FILLER_0_103_3076
*976 FILLER_0_103_3082
*977 FILLER_0_103_3146
*978 FILLER_0_103_3152
*979 FILLER_0_103_3216
*980 FILLER_0_103_3222
*981 FILLER_0_103_3286
*982 FILLER_0_103_3292
*983 FILLER_0_103_3356
*984 FILLER_0_103_3362
*985 FILLER_0_103_3426
*986 FILLER_0_103_3432
*987 FILLER_0_103_346
*988 FILLER_0_103_3496
*989 FILLER_0_103_3502
*990 FILLER_0_103_352
*991 FILLER_0_103_3566
*992 FILLER_0_103_3572
*993 FILLER_0_103_3636
*994 FILLER_0_103_3642
*995 FILLER_0_103_3706
*996 FILLER_0_103_3712
*997 FILLER_0_103_3776
*998 FILLER_0_103_3782
*999 FILLER_0_103_3846
*1000 FILLER_0_103_3852
*1001 FILLER_0_103_3916
*1002 FILLER_0_103_3922
*1003 FILLER_0_103_3986
*1004 FILLER_0_103_3992
*1005 FILLER_0_103_4056
*1006 FILLER_0_103_4062
*1007 FILLER_0_103_4126
*1008 FILLER_0_103_4132
*1009 FILLER_0_103_416
*1010 FILLER_0_103_4196
*1011 FILLER_0_103_4202
*1012 FILLER_0_103_422
*1013 FILLER_0_103_4266
*1014 FILLER_0_103_4272
*1015 FILLER_0_103_4336
*1016 FILLER_0_103_4342
*1017 FILLER_0_103_4406
*1018 FILLER_0_103_4412
*1019 FILLER_0_103_4476
*1020 FILLER_0_103_4482
*1021 FILLER_0_103_4546
*1022 FILLER_0_103_4552
*1023 FILLER_0_103_4616
*1024 FILLER_0_103_4622
*1025 FILLER_0_103_4686
*1026 FILLER_0_103_4692
*1027 FILLER_0_103_4756
*1028 FILLER_0_103_4762
*1029 FILLER_0_103_4826
*1030 FILLER_0_103_4832
*1031 FILLER_0_103_486
*1032 FILLER_0_103_4896
*1033 FILLER_0_103_4902
*1034 FILLER_0_103_492
*1035 FILLER_0_103_4966
*1036 FILLER_0_103_4972
*1037 FILLER_0_103_556
*1038 FILLER_0_103_562
*1039 FILLER_0_103_626
*1040 FILLER_0_103_632
*1041 FILLER_0_103_66
*1042 FILLER_0_103_696
*1043 FILLER_0_103_702
*1044 FILLER_0_103_72
*1045 FILLER_0_103_766
*1046 FILLER_0_103_772
*1047 FILLER_0_103_836
*1048 FILLER_0_103_842
*1049 FILLER_0_103_906
*1050 FILLER_0_103_912
*1051 FILLER_0_103_976
*1052 FILLER_0_103_982
*1053 FILLER_0_104_101
*1054 FILLER_0_104_1011
*1055 FILLER_0_104_1017
*1056 FILLER_0_104_107
*1057 FILLER_0_104_1081
*1058 FILLER_0_104_1087
*1059 FILLER_0_104_1151
*1060 FILLER_0_104_1157
*1061 FILLER_0_104_1221
*1062 FILLER_0_104_1227
*1063 FILLER_0_104_1291
*1064 FILLER_0_104_1297
*1065 FILLER_0_104_1361
*1066 FILLER_0_104_1367
*1067 FILLER_0_104_1431
*1068 FILLER_0_104_1437
*1069 FILLER_0_104_1501
*1070 FILLER_0_104_1507
*1071 FILLER_0_104_1571
*1072 FILLER_0_104_1577
*1073 FILLER_0_104_1641
*1074 FILLER_0_104_1647
*1075 FILLER_0_104_171
*1076 FILLER_0_104_1711
*1077 FILLER_0_104_1717
*1078 FILLER_0_104_177
*1079 FILLER_0_104_1781
*1080 FILLER_0_104_1787
*1081 FILLER_0_104_1851
*1082 FILLER_0_104_1857
*1083 FILLER_0_104_1921
*1084 FILLER_0_104_1927
*1085 FILLER_0_104_1991
*1086 FILLER_0_104_1997
*1087 FILLER_0_104_2
*1088 FILLER_0_104_2061
*1089 FILLER_0_104_2067
*1090 FILLER_0_104_2131
*1091 FILLER_0_104_2137
*1092 FILLER_0_104_2201
*1093 FILLER_0_104_2207
*1094 FILLER_0_104_2271
*1095 FILLER_0_104_2277
*1096 FILLER_0_104_2341
*1097 FILLER_0_104_2347
*1098 FILLER_0_104_241
*1099 FILLER_0_104_2411
*1100 FILLER_0_104_2417
*1101 FILLER_0_104_247
*1102 FILLER_0_104_2481
*1103 FILLER_0_104_2487
*1104 FILLER_0_104_2551
*1105 FILLER_0_104_2557
*1106 FILLER_0_104_2621
*1107 FILLER_0_104_2627
*1108 FILLER_0_104_2691
*1109 FILLER_0_104_2697
*1110 FILLER_0_104_2761
*1111 FILLER_0_104_2767
*1112 FILLER_0_104_2831
*1113 FILLER_0_104_2837
*1114 FILLER_0_104_2901
*1115 FILLER_0_104_2907
*1116 FILLER_0_104_2971
*1117 FILLER_0_104_2977
*1118 FILLER_0_104_3041
*1119 FILLER_0_104_3047
*1120 FILLER_0_104_311
*1121 FILLER_0_104_3111
*1122 FILLER_0_104_3117
*1123 FILLER_0_104_317
*1124 FILLER_0_104_3181
*1125 FILLER_0_104_3187
*1126 FILLER_0_104_3251
*1127 FILLER_0_104_3257
*1128 FILLER_0_104_3321
*1129 FILLER_0_104_3327
*1130 FILLER_0_104_3391
*1131 FILLER_0_104_3397
*1132 FILLER_0_104_34
*1133 FILLER_0_104_3461
*1134 FILLER_0_104_3467
*1135 FILLER_0_104_3531
*1136 FILLER_0_104_3537
*1137 FILLER_0_104_3601
*1138 FILLER_0_104_3607
*1139 FILLER_0_104_3671
*1140 FILLER_0_104_3677
*1141 FILLER_0_104_37
*1142 FILLER_0_104_3741
*1143 FILLER_0_104_3747
*1144 FILLER_0_104_381
*1145 FILLER_0_104_3811
*1146 FILLER_0_104_3817
*1147 FILLER_0_104_387
*1148 FILLER_0_104_3881
*1149 FILLER_0_104_3887
*1150 FILLER_0_104_3951
*1151 FILLER_0_104_3957
*1152 FILLER_0_104_4021
*1153 FILLER_0_104_4027
*1154 FILLER_0_104_4091
*1155 FILLER_0_104_4097
*1156 FILLER_0_104_4161
*1157 FILLER_0_104_4167
*1158 FILLER_0_104_4231
*1159 FILLER_0_104_4237
*1160 FILLER_0_104_4301
*1161 FILLER_0_104_4307
*1162 FILLER_0_104_4371
*1163 FILLER_0_104_4377
*1164 FILLER_0_104_4441
*1165 FILLER_0_104_4447
*1166 FILLER_0_104_451
*1167 FILLER_0_104_4511
*1168 FILLER_0_104_4517
*1169 FILLER_0_104_457
*1170 FILLER_0_104_4581
*1171 FILLER_0_104_4587
*1172 FILLER_0_104_4651
*1173 FILLER_0_104_4657
*1174 FILLER_0_104_4721
*1175 FILLER_0_104_4727
*1176 FILLER_0_104_4791
*1177 FILLER_0_104_4797
*1178 FILLER_0_104_4861
*1179 FILLER_0_104_4867
*1180 FILLER_0_104_4931
*1181 FILLER_0_104_4937
*1182 FILLER_0_104_4969
*1183 FILLER_0_104_4973
*1184 FILLER_0_104_521
*1185 FILLER_0_104_527
*1186 FILLER_0_104_591
*1187 FILLER_0_104_597
*1188 FILLER_0_104_661
*1189 FILLER_0_104_667
*1190 FILLER_0_104_731
*1191 FILLER_0_104_737
*1192 FILLER_0_104_801
*1193 FILLER_0_104_807
*1194 FILLER_0_104_871
*1195 FILLER_0_104_877
*1196 FILLER_0_104_941
*1197 FILLER_0_104_947
*1198 FILLER_0_105_1046
*1199 FILLER_0_105_1052
*1200 FILLER_0_105_1116
*1201 FILLER_0_105_1122
*1202 FILLER_0_105_1186
*1203 FILLER_0_105_1192
*1204 FILLER_0_105_1256
*1205 FILLER_0_105_1262
*1206 FILLER_0_105_1326
*1207 FILLER_0_105_1332
*1208 FILLER_0_105_136
*1209 FILLER_0_105_1396
*1210 FILLER_0_105_1402
*1211 FILLER_0_105_142
*1212 FILLER_0_105_1466
*1213 FILLER_0_105_1472
*1214 FILLER_0_105_1536
*1215 FILLER_0_105_1542
*1216 FILLER_0_105_1606
*1217 FILLER_0_105_1612
*1218 FILLER_0_105_1676
*1219 FILLER_0_105_1682
*1220 FILLER_0_105_1746
*1221 FILLER_0_105_1752
*1222 FILLER_0_105_1816
*1223 FILLER_0_105_1822
*1224 FILLER_0_105_1886
*1225 FILLER_0_105_1892
*1226 FILLER_0_105_1956
*1227 FILLER_0_105_1962
*1228 FILLER_0_105_2
*1229 FILLER_0_105_2026
*1230 FILLER_0_105_2032
*1231 FILLER_0_105_206
*1232 FILLER_0_105_2096
*1233 FILLER_0_105_2102
*1234 FILLER_0_105_212
*1235 FILLER_0_105_2166
*1236 FILLER_0_105_2172
*1237 FILLER_0_105_2236
*1238 FILLER_0_105_2242
*1239 FILLER_0_105_2306
*1240 FILLER_0_105_2312
*1241 FILLER_0_105_2376
*1242 FILLER_0_105_2382
*1243 FILLER_0_105_2446
*1244 FILLER_0_105_2452
*1245 FILLER_0_105_2516
*1246 FILLER_0_105_2522
*1247 FILLER_0_105_2586
*1248 FILLER_0_105_2592
*1249 FILLER_0_105_2656
*1250 FILLER_0_105_2662
*1251 FILLER_0_105_2726
*1252 FILLER_0_105_2732
*1253 FILLER_0_105_276
*1254 FILLER_0_105_2796
*1255 FILLER_0_105_2802
*1256 FILLER_0_105_282
*1257 FILLER_0_105_2866
*1258 FILLER_0_105_2872
*1259 FILLER_0_105_2936
*1260 FILLER_0_105_2942
*1261 FILLER_0_105_3006
*1262 FILLER_0_105_3012
*1263 FILLER_0_105_3076
*1264 FILLER_0_105_3082
*1265 FILLER_0_105_3146
*1266 FILLER_0_105_3152
*1267 FILLER_0_105_3216
*1268 FILLER_0_105_3222
*1269 FILLER_0_105_3286
*1270 FILLER_0_105_3292
*1271 FILLER_0_105_3356
*1272 FILLER_0_105_3362
*1273 FILLER_0_105_3426
*1274 FILLER_0_105_3432
*1275 FILLER_0_105_346
*1276 FILLER_0_105_3496
*1277 FILLER_0_105_3502
*1278 FILLER_0_105_352
*1279 FILLER_0_105_3566
*1280 FILLER_0_105_3572
*1281 FILLER_0_105_3636
*1282 FILLER_0_105_3642
*1283 FILLER_0_105_3706
*1284 FILLER_0_105_3712
*1285 FILLER_0_105_3776
*1286 FILLER_0_105_3782
*1287 FILLER_0_105_3846
*1288 FILLER_0_105_3852
*1289 FILLER_0_105_3916
*1290 FILLER_0_105_3922
*1291 FILLER_0_105_3986
*1292 FILLER_0_105_3992
*1293 FILLER_0_105_4056
*1294 FILLER_0_105_4062
*1295 FILLER_0_105_4126
*1296 FILLER_0_105_4132
*1297 FILLER_0_105_416
*1298 FILLER_0_105_4196
*1299 FILLER_0_105_4202
*1300 FILLER_0_105_422
*1301 FILLER_0_105_4266
*1302 FILLER_0_105_4272
*1303 FILLER_0_105_4336
*1304 FILLER_0_105_4342
*1305 FILLER_0_105_4406
*1306 FILLER_0_105_4412
*1307 FILLER_0_105_4476
*1308 FILLER_0_105_4482
*1309 FILLER_0_105_4546
*1310 FILLER_0_105_4552
*1311 FILLER_0_105_4616
*1312 FILLER_0_105_4622
*1313 FILLER_0_105_4686
*1314 FILLER_0_105_4692
*1315 FILLER_0_105_4756
*1316 FILLER_0_105_4762
*1317 FILLER_0_105_4826
*1318 FILLER_0_105_4832
*1319 FILLER_0_105_486
*1320 FILLER_0_105_4896
*1321 FILLER_0_105_4902
*1322 FILLER_0_105_492
*1323 FILLER_0_105_4966
*1324 FILLER_0_105_4972
*1325 FILLER_0_105_556
*1326 FILLER_0_105_562
*1327 FILLER_0_105_626
*1328 FILLER_0_105_632
*1329 FILLER_0_105_66
*1330 FILLER_0_105_696
*1331 FILLER_0_105_702
*1332 FILLER_0_105_72
*1333 FILLER_0_105_766
*1334 FILLER_0_105_772
*1335 FILLER_0_105_836
*1336 FILLER_0_105_842
*1337 FILLER_0_105_906
*1338 FILLER_0_105_912
*1339 FILLER_0_105_976
*1340 FILLER_0_105_982
*1341 FILLER_0_106_101
*1342 FILLER_0_106_1011
*1343 FILLER_0_106_1017
*1344 FILLER_0_106_107
*1345 FILLER_0_106_1081
*1346 FILLER_0_106_1087
*1347 FILLER_0_106_1151
*1348 FILLER_0_106_1157
*1349 FILLER_0_106_1221
*1350 FILLER_0_106_1227
*1351 FILLER_0_106_1291
*1352 FILLER_0_106_1297
*1353 FILLER_0_106_1361
*1354 FILLER_0_106_1367
*1355 FILLER_0_106_1431
*1356 FILLER_0_106_1437
*1357 FILLER_0_106_1501
*1358 FILLER_0_106_1507
*1359 FILLER_0_106_1571
*1360 FILLER_0_106_1577
*1361 FILLER_0_106_1641
*1362 FILLER_0_106_1647
*1363 FILLER_0_106_171
*1364 FILLER_0_106_1711
*1365 FILLER_0_106_1717
*1366 FILLER_0_106_177
*1367 FILLER_0_106_1781
*1368 FILLER_0_106_1787
*1369 FILLER_0_106_1851
*1370 FILLER_0_106_1857
*1371 FILLER_0_106_1921
*1372 FILLER_0_106_1927
*1373 FILLER_0_106_1991
*1374 FILLER_0_106_1997
*1375 FILLER_0_106_2
*1376 FILLER_0_106_2061
*1377 FILLER_0_106_2067
*1378 FILLER_0_106_2131
*1379 FILLER_0_106_2137
*1380 FILLER_0_106_2201
*1381 FILLER_0_106_2207
*1382 FILLER_0_106_2271
*1383 FILLER_0_106_2277