*SPEF "ieee 1481-1999"
*DESIGN "ADC_Flash_Logic"
*DATE "11:11:11 Fri 11 11, 1111"
*VENDOR "OpenRCX"
*PROGRAM "Parallel Extraction"
*VERSION "1.0"
*DESIGN_FLOW "NAME_SCOPE LOCAL" "PIN_CAP NONE"
*DIVIDER /
*DELIMITER :
*BUS_DELIMITER []
*T_UNIT 1 NS
*C_UNIT 1 PF
*R_UNIT 1 OHM
*L_UNIT 1 HENRY

*NAME_MAP
*1 BN[0]
*2 BN[1]
*3 BN[2]
*4 net63
*5 net64
*6 net65
*7 net66
*8 net67
*9 net68
*10 net69
*11 B[0]
*12 B[1]
*13 B[2]
*14 net56
*15 net57
*16 net58
*17 net59
*18 net60
*19 net61
*20 net62
*21 CompN[0]
*22 CompN[1]
*23 CompN[2]
*24 CompN[3]
*25 CompN[4]
*26 CompN[5]
*27 CompN[6]
*28 Comp[0]
*29 Comp[1]
*30 Comp[2]
*31 Comp[3]
*32 Comp[4]
*33 Comp[5]
*34 Comp[6]
*35 Samp
*36 clk
*37 eoc
*40 BNx\[0\]
*41 BNx\[1\]
*42 BNx\[2\]
*43 Bx\[0\]
*44 Bx\[1\]
*45 Bx\[2\]
*46 _000_
*47 _001_
*48 _002_
*49 _003_
*50 _004_
*51 _005_
*52 _006_
*53 _007_
*54 _008_
*55 _009_
*56 _010_
*57 _011_
*58 _012_
*59 _013_
*60 _014_
*61 _015_
*62 _016_
*63 _017_
*64 _018_
*65 _019_
*66 _020_
*67 _021_
*68 _022_
*69 _023_
*70 _024_
*71 _025_
*72 _026_
*73 _027_
*74 _028_
*75 _029_
*76 _030_
*77 _031_
*78 _032_
*79 _033_
*80 _034_
*81 _035_
*82 _036_
*83 _037_
*84 net1
*85 net10
*86 net11
*87 net12
*88 net13
*89 net14
*90 net15
*91 net16
*92 net17
*93 net18
*94 net19
*95 net2
*96 net20
*97 net21
*98 net22
*99 net23
*100 net24
*101 net25
*102 net26
*103 net27
*104 net28
*105 net29
*106 net3
*107 net30
*108 net31
*109 net32
*110 net33
*111 net34
*112 net35
*113 net36
*114 net37
*115 net38
*116 net39
*117 net4
*118 net40
*119 net41
*120 net42
*121 net43
*122 net44
*123 net45
*124 net46
*125 net47
*126 net48
*127 net49
*128 net5
*129 net50
*130 net51
*131 net52
*132 net53
*133 net54
*134 net55
*135 net6
*136 net7
*137 net70
*138 net71
*139 net72
*140 net73
*141 net74
*142 net75
*143 net76
*144 net8
*145 net9
*146 ADC_Flash_Logic_56
*147 ADC_Flash_Logic_57
*148 ADC_Flash_Logic_58
*149 ADC_Flash_Logic_59
*150 ADC_Flash_Logic_60
*151 ADC_Flash_Logic_61
*152 ADC_Flash_Logic_62
*153 ADC_Flash_Logic_63
*154 ADC_Flash_Logic_64
*155 ADC_Flash_Logic_65
*156 ADC_Flash_Logic_66
*157 ADC_Flash_Logic_67
*158 ADC_Flash_Logic_68
*159 ADC_Flash_Logic_69
*160 ANTENNA__039__I
*161 ANTENNA__040__I
*162 ANTENNA__041__I
*163 ANTENNA__042__I
*164 ANTENNA__043__I
*165 ANTENNA__044__A1
*166 ANTENNA__044__A2
*167 ANTENNA__045__A1
*168 ANTENNA__045__A3
*169 ANTENNA__047__A1
*170 ANTENNA__047__A2
*171 ANTENNA__047__A3
*172 ANTENNA__048__A1
*173 ANTENNA__048__A2
*174 ANTENNA__048__A3
*175 ANTENNA__049__A1
*176 ANTENNA__049__A2
*177 ANTENNA__050__A1
*178 ANTENNA__050__B
*179 ANTENNA__050__C
*180 ANTENNA__051__A2
*181 ANTENNA__054__A1
*182 ANTENNA__055__A1
*183 ANTENNA__055__A2
*184 ANTENNA__058__A2
*185 ANTENNA__062__B2
*186 ANTENNA__063__A1
*187 ANTENNA__064__A1
*188 ANTENNA__064__A2
*189 ANTENNA__065__A1
*190 ANTENNA__065__A2
*191 ANTENNA__065__A4
*192 ANTENNA__066__A1
*193 ANTENNA__066__A3
*194 ANTENNA__067__A1
*195 ANTENNA__067__A2
*196 ANTENNA__068__A1
*197 ANTENNA__068__A2
*198 ANTENNA__068__A3
*199 ANTENNA__068__A4
*200 ANTENNA__071__A1
*201 ANTENNA__073__A1
*202 ANTENNA__077__I
*203 ANTENNA__078__I
*204 ANTENNA__079__I
*205 ANTENNA__080__I
*206 ANTENNA__081__I
*207 ANTENNA__082__I
*208 ANTENNA__083__CLK
*209 ANTENNA__084__CLK
*210 ANTENNA__085__CLK
*211 ANTENNA__086__CLK
*212 ANTENNA__087__CLK
*213 ANTENNA__088__CLK
*214 ANTENNA__089__CLK
*215 ANTENNA_input10_I
*216 ANTENNA_input11_I
*217 ANTENNA_input12_I
*218 ANTENNA_input13_I
*219 ANTENNA_input14_I
*220 ANTENNA_input15_I
*221 ANTENNA_input16_I
*222 ANTENNA_input1_I
*223 ANTENNA_input2_I
*224 ANTENNA_input3_I
*225 ANTENNA_input4_I
*226 ANTENNA_input5_I
*227 ANTENNA_input6_I
*228 ANTENNA_input7_I
*229 ANTENNA_input8_I
*230 ANTENNA_input9_I
*231 ANTENNA_output17_I
*232 ANTENNA_output18_I
*233 ANTENNA_output19_I
*234 ANTENNA_output20_I
*235 ANTENNA_output21_I
*236 ANTENNA_output22_I
*237 ANTENNA_wire26_I
*238 ANTENNA_wire27_I
*239 ANTENNA_wire28_I
*240 ANTENNA_wire29_I
*241 ANTENNA_wire30_I
*242 ANTENNA_wire31_I
*243 ANTENNA_wire33_I
*244 ANTENNA_wire34_I
*245 ANTENNA_wire35_I
*246 ANTENNA_wire36_I
*247 ANTENNA_wire37_I
*248 ANTENNA_wire38_I
*249 ANTENNA_wire39_I
*250 ANTENNA_wire41_I
*251 ANTENNA_wire42_I
*252 ANTENNA_wire43_I
*253 ANTENNA_wire44_I
*254 ANTENNA_wire45_I
*255 ANTENNA_wire46_I
*256 ANTENNA_wire47_I
*257 ANTENNA_wire48_I
*258 ANTENNA_wire54_I
*259 ANTENNA_wire55_I
*260 FILLER_0_0_1022
*261 FILLER_0_0_104
*262 FILLER_0_0_1056
*263 FILLER_0_0_1090
*264 FILLER_0_0_1124
*265 FILLER_0_0_1158
*266 FILLER_0_0_1192
*267 FILLER_0_0_1226
*268 FILLER_0_0_1260
*269 FILLER_0_0_1294
*270 FILLER_0_0_1328
*271 FILLER_0_0_1362
*272 FILLER_0_0_138
*273 FILLER_0_0_1396
*274 FILLER_0_0_1430
*275 FILLER_0_0_1464
*276 FILLER_0_0_1498
*277 FILLER_0_0_1532
*278 FILLER_0_0_1566
*279 FILLER_0_0_1600
*280 FILLER_0_0_1634
*281 FILLER_0_0_1668
*282 FILLER_0_0_1702
*283 FILLER_0_0_172
*284 FILLER_0_0_1736
*285 FILLER_0_0_1770
*286 FILLER_0_0_1804
*287 FILLER_0_0_1838
*288 FILLER_0_0_1872
*289 FILLER_0_0_1906
*290 FILLER_0_0_1940
*291 FILLER_0_0_1974
*292 FILLER_0_0_2
*293 FILLER_0_0_2008
*294 FILLER_0_0_2042
*295 FILLER_0_0_206
*296 FILLER_0_0_2076
*297 FILLER_0_0_2110
*298 FILLER_0_0_2144
*299 FILLER_0_0_2178
*300 FILLER_0_0_2212
*301 FILLER_0_0_2246
*302 FILLER_0_0_2280
*303 FILLER_0_0_2314
*304 FILLER_0_0_2348
*305 FILLER_0_0_2382
*306 FILLER_0_0_240
*307 FILLER_0_0_2416
*308 FILLER_0_0_2450
*309 FILLER_0_0_2484
*310 FILLER_0_0_2518
*311 FILLER_0_0_2552
*312 FILLER_0_0_2586
*313 FILLER_0_0_2620
*314 FILLER_0_0_2654
*315 FILLER_0_0_2688
*316 FILLER_0_0_2722
*317 FILLER_0_0_274
*318 FILLER_0_0_2756
*319 FILLER_0_0_2790
*320 FILLER_0_0_2824
*321 FILLER_0_0_2858
*322 FILLER_0_0_2892
*323 FILLER_0_0_2926
*324 FILLER_0_0_2960
*325 FILLER_0_0_2994
*326 FILLER_0_0_3028
*327 FILLER_0_0_3062
*328 FILLER_0_0_308
*329 FILLER_0_0_3096
*330 FILLER_0_0_3130
*331 FILLER_0_0_3164
*332 FILLER_0_0_3198
*333 FILLER_0_0_3232
*334 FILLER_0_0_3266
*335 FILLER_0_0_3300
*336 FILLER_0_0_3334
*337 FILLER_0_0_3368
*338 FILLER_0_0_3402
*339 FILLER_0_0_342
*340 FILLER_0_0_3436
*341 FILLER_0_0_3470
*342 FILLER_0_0_3504
*343 FILLER_0_0_3538
*344 FILLER_0_0_3572
*345 FILLER_0_0_36
*346 FILLER_0_0_3606
*347 FILLER_0_0_3640
*348 FILLER_0_0_3674
*349 FILLER_0_0_3708
*350 FILLER_0_0_3742
*351 FILLER_0_0_376
*352 FILLER_0_0_3776
*353 FILLER_0_0_3810
*354 FILLER_0_0_3844
*355 FILLER_0_0_3878
*356 FILLER_0_0_3912
*357 FILLER_0_0_3946
*358 FILLER_0_0_3980
*359 FILLER_0_0_4014
*360 FILLER_0_0_4048
*361 FILLER_0_0_4082
*362 FILLER_0_0_410
*363 FILLER_0_0_4116
*364 FILLER_0_0_4150
*365 FILLER_0_0_4184
*366 FILLER_0_0_4218
*367 FILLER_0_0_4252
*368 FILLER_0_0_4286
*369 FILLER_0_0_4320
*370 FILLER_0_0_4354
*371 FILLER_0_0_4388
*372 FILLER_0_0_4422
*373 FILLER_0_0_444
*374 FILLER_0_0_4456
*375 FILLER_0_0_4490
*376 FILLER_0_0_4524
*377 FILLER_0_0_4558
*378 FILLER_0_0_4592
*379 FILLER_0_0_4626
*380 FILLER_0_0_4660
*381 FILLER_0_0_4694
*382 FILLER_0_0_4728
*383 FILLER_0_0_4762
*384 FILLER_0_0_478
*385 FILLER_0_0_4796
*386 FILLER_0_0_4830
*387 FILLER_0_0_4864
*388 FILLER_0_0_4898
*389 FILLER_0_0_4932
*390 FILLER_0_0_4966
*391 FILLER_0_0_512
*392 FILLER_0_0_546
*393 FILLER_0_0_580
*394 FILLER_0_0_614
*395 FILLER_0_0_648
*396 FILLER_0_0_682
*397 FILLER_0_0_70
*398 FILLER_0_0_716
*399 FILLER_0_0_750
*400 FILLER_0_0_784
*401 FILLER_0_0_818
*402 FILLER_0_0_852
*403 FILLER_0_0_886
*404 FILLER_0_0_920
*405 FILLER_0_0_954
*406 FILLER_0_0_988
*407 FILLER_0_100_101
*408 FILLER_0_100_1011
*409 FILLER_0_100_1017
*410 FILLER_0_100_107
*411 FILLER_0_100_1081
*412 FILLER_0_100_1087
*413 FILLER_0_100_1151
*414 FILLER_0_100_1157
*415 FILLER_0_100_1221
*416 FILLER_0_100_1227
*417 FILLER_0_100_1291
*418 FILLER_0_100_1297
*419 FILLER_0_100_1361
*420 FILLER_0_100_1367
*421 FILLER_0_100_1431
*422 FILLER_0_100_1437
*423 FILLER_0_100_1501
*424 FILLER_0_100_1507
*425 FILLER_0_100_1571
*426 FILLER_0_100_1577
*427 FILLER_0_100_1641
*428 FILLER_0_100_1647
*429 FILLER_0_100_171
*430 FILLER_0_100_1711
*431 FILLER_0_100_1717
*432 FILLER_0_100_177
*433 FILLER_0_100_1781
*434 FILLER_0_100_1787
*435 FILLER_0_100_1851
*436 FILLER_0_100_1857
*437 FILLER_0_100_1921
*438 FILLER_0_100_1927
*439 FILLER_0_100_1991
*440 FILLER_0_100_1997
*441 FILLER_0_100_2
*442 FILLER_0_100_2061
*443 FILLER_0_100_2067
*444 FILLER_0_100_2131
*445 FILLER_0_100_2137
*446 FILLER_0_100_2201
*447 FILLER_0_100_2207
*448 FILLER_0_100_2271
*449 FILLER_0_100_2277
*450 FILLER_0_100_2341
*451 FILLER_0_100_2347
*452 FILLER_0_100_241
*453 FILLER_0_100_2411
*454 FILLER_0_100_2417
*455 FILLER_0_100_247
*456 FILLER_0_100_2481
*457 FILLER_0_100_2487
*458 FILLER_0_100_2551
*459 FILLER_0_100_2557
*460 FILLER_0_100_2621
*461 FILLER_0_100_2627
*462 FILLER_0_100_2691
*463 FILLER_0_100_2697
*464 FILLER_0_100_2761
*465 FILLER_0_100_2767
*466 FILLER_0_100_2831
*467 FILLER_0_100_2837
*468 FILLER_0_100_2901
*469 FILLER_0_100_2907
*470 FILLER_0_100_2971
*471 FILLER_0_100_2977
*472 FILLER_0_100_3041
*473 FILLER_0_100_3047
*474 FILLER_0_100_311
*475 FILLER_0_100_3111
*476 FILLER_0_100_3117
*477 FILLER_0_100_317
*478 FILLER_0_100_3181
*479 FILLER_0_100_3187
*480 FILLER_0_100_3251
*481 FILLER_0_100_3257
*482 FILLER_0_100_3321
*483 FILLER_0_100_3327
*484 FILLER_0_100_3391
*485 FILLER_0_100_3397
*486 FILLER_0_100_34
*487 FILLER_0_100_3461
*488 FILLER_0_100_3467
*489 FILLER_0_100_3531
*490 FILLER_0_100_3537
*491 FILLER_0_100_3601
*492 FILLER_0_100_3607
*493 FILLER_0_100_3671
*494 FILLER_0_100_3677
*495 FILLER_0_100_37
*496 FILLER_0_100_3741
*497 FILLER_0_100_3747
*498 FILLER_0_100_381
*499 FILLER_0_100_3811
*500 FILLER_0_100_3817
*501 FILLER_0_100_387
*502 FILLER_0_100_3881
*503 FILLER_0_100_3887
*504 FILLER_0_100_3951
*505 FILLER_0_100_3957
*506 FILLER_0_100_4021
*507 FILLER_0_100_4027
*508 FILLER_0_100_4091
*509 FILLER_0_100_4097
*510 FILLER_0_100_4161
*511 FILLER_0_100_4167
*512 FILLER_0_100_4231
*513 FILLER_0_100_4237
*514 FILLER_0_100_4301
*515 FILLER_0_100_4307
*516 FILLER_0_100_4371
*517 FILLER_0_100_4377
*518 FILLER_0_100_4441
*519 FILLER_0_100_4447
*520 FILLER_0_100_451
*521 FILLER_0_100_4511
*522 FILLER_0_100_4517
*523 FILLER_0_100_457
*524 FILLER_0_100_4581
*525 FILLER_0_100_4587
*526 FILLER_0_100_4651
*527 FILLER_0_100_4657
*528 FILLER_0_100_4721
*529 FILLER_0_100_4727
*530 FILLER_0_100_4791
*531 FILLER_0_100_4797
*532 FILLER_0_100_4861
*533 FILLER_0_100_4867
*534 FILLER_0_100_4931
*535 FILLER_0_100_4937
*536 FILLER_0_100_4969
*537 FILLER_0_100_4973
*538 FILLER_0_100_521
*539 FILLER_0_100_527
*540 FILLER_0_100_591
*541 FILLER_0_100_597
*542 FILLER_0_100_661
*543 FILLER_0_100_667
*544 FILLER_0_100_731
*545 FILLER_0_100_737
*546 FILLER_0_100_801
*547 FILLER_0_100_807
*548 FILLER_0_100_871
*549 FILLER_0_100_877
*550 FILLER_0_100_941
*551 FILLER_0_100_947
*552 FILLER_0_101_1046
*553 FILLER_0_101_1052
*554 FILLER_0_101_1116
*555 FILLER_0_101_1122
*556 FILLER_0_101_1186
*557 FILLER_0_101_1192
*558 FILLER_0_101_1256
*559 FILLER_0_101_1262
*560 FILLER_0_101_1326
*561 FILLER_0_101_1332
*562 FILLER_0_101_136
*563 FILLER_0_101_1396
*564 FILLER_0_101_1402
*565 FILLER_0_101_142
*566 FILLER_0_101_1466
*567 FILLER_0_101_1472
*568 FILLER_0_101_1536
*569 FILLER_0_101_1542
*570 FILLER_0_101_1606
*571 FILLER_0_101_1612
*572 FILLER_0_101_1676
*573 FILLER_0_101_1682
*574 FILLER_0_101_1746
*575 FILLER_0_101_1752
*576 FILLER_0_101_1816
*577 FILLER_0_101_1822
*578 FILLER_0_101_1886
*579 FILLER_0_101_1892
*580 FILLER_0_101_1956
*581 FILLER_0_101_1962
*582 FILLER_0_101_2
*583 FILLER_0_101_2026
*584 FILLER_0_101_2032
*585 FILLER_0_101_206
*586 FILLER_0_101_2096
*587 FILLER_0_101_2102
*588 FILLER_0_101_212
*589 FILLER_0_101_2166
*590 FILLER_0_101_2172
*591 FILLER_0_101_2236
*592 FILLER_0_101_2242
*593 FILLER_0_101_2306
*594 FILLER_0_101_2312
*595 FILLER_0_101_2376
*596 FILLER_0_101_2382
*597 FILLER_0_101_2446
*598 FILLER_0_101_2452
*599 FILLER_0_101_2516
*600 FILLER_0_101_2522
*601 FILLER_0_101_2586
*602 FILLER_0_101_2592
*603 FILLER_0_101_2656
*604 FILLER_0_101_2662
*605 FILLER_0_101_2726
*606 FILLER_0_101_2732
*607 FILLER_0_101_276
*608 FILLER_0_101_2796
*609 FILLER_0_101_2802
*610 FILLER_0_101_282
*611 FILLER_0_101_2866
*612 FILLER_0_101_2872
*613 FILLER_0_101_2936
*614 FILLER_0_101_2942
*615 FILLER_0_101_3006
*616 FILLER_0_101_3012
*617 FILLER_0_101_3076
*618 FILLER_0_101_3082
*619 FILLER_0_101_3146
*620 FILLER_0_101_3152
*621 FILLER_0_101_3216
*622 FILLER_0_101_3222
*623 FILLER_0_101_3286
*624 FILLER_0_101_3292
*625 FILLER_0_101_3356
*626 FILLER_0_101_3362
*627 FILLER_0_101_3426
*628 FILLER_0_101_3432
*629 FILLER_0_101_346
*630 FILLER_0_101_3496
*631 FILLER_0_101_3502
*632 FILLER_0_101_352
*633 FILLER_0_101_3566
*634 FILLER_0_101_3572
*635 FILLER_0_101_3636
*636 FILLER_0_101_3642
*637 FILLER_0_101_3706
*638 FILLER_0_101_3712
*639 FILLER_0_101_3776
*640 FILLER_0_101_3782
*641 FILLER_0_101_3846
*642 FILLER_0_101_3852
*643 FILLER_0_101_3916
*644 FILLER_0_101_3922
*645 FILLER_0_101_3986
*646 FILLER_0_101_3992
*647 FILLER_0_101_4056
*648 FILLER_0_101_4062
*649 FILLER_0_101_4126
*650 FILLER_0_101_4132
*651 FILLER_0_101_416
*652 FILLER_0_101_4196
*653 FILLER_0_101_4202
*654 FILLER_0_101_422
*655 FILLER_0_101_4266
*656 FILLER_0_101_4272
*657 FILLER_0_101_4336
*658 FILLER_0_101_4342
*659 FILLER_0_101_4406
*660 FILLER_0_101_4412
*661 FILLER_0_101_4476
*662 FILLER_0_101_4482
*663 FILLER_0_101_4546
*664 FILLER_0_101_4552
*665 FILLER_0_101_4616
*666 FILLER_0_101_4622
*667 FILLER_0_101_4686
*668 FILLER_0_101_4692
*669 FILLER_0_101_4756
*670 FILLER_0_101_4762
*671 FILLER_0_101_4826
*672 FILLER_0_101_4832
*673 FILLER_0_101_486
*674 FILLER_0_101_4896
*675 FILLER_0_101_4902
*676 FILLER_0_101_492
*677 FILLER_0_101_4966
*678 FILLER_0_101_4972
*679 FILLER_0_101_556
*680 FILLER_0_101_562
*681 FILLER_0_101_626
*682 FILLER_0_101_632
*683 FILLER_0_101_66
*684 FILLER_0_101_696
*685 FILLER_0_101_702
*686 FILLER_0_101_72
*687 FILLER_0_101_766
*688 FILLER_0_101_772
*689 FILLER_0_101_836
*690 FILLER_0_101_842
*691 FILLER_0_101_906
*692 FILLER_0_101_912
*693 FILLER_0_101_976
*694 FILLER_0_101_982
*695 FILLER_0_102_101
*696 FILLER_0_102_1011
*697 FILLER_0_102_1017
*698 FILLER_0_102_107
*699 FILLER_0_102_1081
*700 FILLER_0_102_1087
*701 FILLER_0_102_1151
*702 FILLER_0_102_1157
*703 FILLER_0_102_1221
*704 FILLER_0_102_1227
*705 FILLER_0_102_1291
*706 FILLER_0_102_1297
*707 FILLER_0_102_1361
*708 FILLER_0_102_1367
*709 FILLER_0_102_1431
*710 FILLER_0_102_1437
*711 FILLER_0_102_1501
*712 FILLER_0_102_1507
*713 FILLER_0_102_1571
*714 FILLER_0_102_1577
*715 FILLER_0_102_1641
*716 FILLER_0_102_1647
*717 FILLER_0_102_171
*718 FILLER_0_102_1711
*719 FILLER_0_102_1717
*720 FILLER_0_102_177
*721 FILLER_0_102_1781
*722 FILLER_0_102_1787
*723 FILLER_0_102_1851
*724 FILLER_0_102_1857
*725 FILLER_0_102_1921
*726 FILLER_0_102_1927
*727 FILLER_0_102_1991
*728 FILLER_0_102_1997
*729 FILLER_0_102_2
*730 FILLER_0_102_2061
*731 FILLER_0_102_2067
*732 FILLER_0_102_2131
*733 FILLER_0_102_2137
*734 FILLER_0_102_2201
*735 FILLER_0_102_2207
*736 FILLER_0_102_2271
*737 FILLER_0_102_2277
*738 FILLER_0_102_2341
*739 FILLER_0_102_2347
*740 FILLER_0_102_241
*741 FILLER_0_102_2411
*742 FILLER_0_102_2417
*743 FILLER_0_102_247
*744 FILLER_0_102_2481
*745 FILLER_0_102_2487
*746 FILLER_0_102_2551
*747 FILLER_0_102_2557
*748 FILLER_0_102_2621
*749 FILLER_0_102_2627
*750 FILLER_0_102_2691
*751 FILLER_0_102_2697
*752 FILLER_0_102_2761
*753 FILLER_0_102_2767
*754 FILLER_0_102_2831
*755 FILLER_0_102_2837
*756 FILLER_0_102_2901
*757 FILLER_0_102_2907
*758 FILLER_0_102_2971
*759 FILLER_0_102_2977
*760 FILLER_0_102_3041
*761 FILLER_0_102_3047
*762 FILLER_0_102_311
*763 FILLER_0_102_3111
*764 FILLER_0_102_3117
*765 FILLER_0_102_317
*766 FILLER_0_102_3181
*767 FILLER_0_102_3187
*768 FILLER_0_102_3251
*769 FILLER_0_102_3257
*770 FILLER_0_102_3321
*771 FILLER_0_102_3327
*772 FILLER_0_102_3391
*773 FILLER_0_102_3397
*774 FILLER_0_102_34
*775 FILLER_0_102_3461
*776 FILLER_0_102_3467
*777 FILLER_0_102_3531
*778 FILLER_0_102_3537
*779 FILLER_0_102_3601
*780 FILLER_0_102_3607
*781 FILLER_0_102_3671
*782 FILLER_0_102_3677
*783 FILLER_0_102_37
*784 FILLER_0_102_3741
*785 FILLER_0_102_3747
*786 FILLER_0_102_381
*787 FILLER_0_102_3811
*788 FILLER_0_102_3817
*789 FILLER_0_102_387
*790 FILLER_0_102_3881
*791 FILLER_0_102_3887
*792 FILLER_0_102_3951
*793 FILLER_0_102_3957
*794 FILLER_0_102_4021
*795 FILLER_0_102_4027
*796 FILLER_0_102_4091
*797 FILLER_0_102_4097
*798 FILLER_0_102_4161
*799 FILLER_0_102_4167
*800 FILLER_0_102_4231
*801 FILLER_0_102_4237
*802 FILLER_0_102_4301
*803 FILLER_0_102_4307
*804 FILLER_0_102_4371
*805 FILLER_0_102_4377
*806 FILLER_0_102_4441
*807 FILLER_0_102_4447
*808 FILLER_0_102_451
*809 FILLER_0_102_4511
*810 FILLER_0_102_4517
*811 FILLER_0_102_457
*812 FILLER_0_102_4581
*813 FILLER_0_102_4587
*814 FILLER_0_102_4651
*815 FILLER_0_102_4657
*816 FILLER_0_102_4721
*817 FILLER_0_102_4727
*818 FILLER_0_102_4791
*819 FILLER_0_102_4797
*820 FILLER_0_102_4861
*821 FILLER_0_102_4867
*822 FILLER_0_102_4931
*823 FILLER_0_102_4937
*824 FILLER_0_102_4969
*825 FILLER_0_102_4973
*826 FILLER_0_102_521
*827 FILLER_0_102_527
*828 FILLER_0_102_591
*829 FILLER_0_102_597
*830 FILLER_0_102_661
*831 FILLER_0_102_667
*832 FILLER_0_102_731
*833 FILLER_0_102_737
*834 FILLER_0_102_801
*835 FILLER_0_102_807
*836 FILLER_0_102_871
*837 FILLER_0_102_877
*838 FILLER_0_102_941
*839 FILLER_0_102_947
*840 FILLER_0_103_1046
*841 FILLER_0_103_1052
*842 FILLER_0_103_1116
*843 FILLER_0_103_1122
*844 FILLER_0_103_1186
*845 FILLER_0_103_1192
*846 FILLER_0_103_1256
*847 FILLER_0_103_1262
*848 FILLER_0_103_1326
*849 FILLER_0_103_1332
*850 FILLER_0_103_136
*851 FILLER_0_103_1396
*852 FILLER_0_103_1402
*853 FILLER_0_103_142
*854 FILLER_0_103_1466
*855 FILLER_0_103_1472
*856 FILLER_0_103_1536
*857 FILLER_0_103_1542
*858 FILLER_0_103_1606
*859 FILLER_0_103_1612
*860 FILLER_0_103_1676
*861 FILLER_0_103_1682
*862 FILLER_0_103_1746
*863 FILLER_0_103_1752
*864 FILLER_0_103_1816
*865 FILLER_0_103_1822
*866 FILLER_0_103_1886
*867 FILLER_0_103_1892
*868 FILLER_0_103_1956
*869 FILLER_0_103_1962
*870 FILLER_0_103_2
*871 FILLER_0_103_2026
*872 FILLER_0_103_2032
*873 FILLER_0_103_206
*874 FILLER_0_103_2096
*875 FILLER_0_103_2102
*876 FILLER_0_103_212
*877 FILLER_0_103_2166
*878 FILLER_0_103_2172
*879 FILLER_0_103_2236
*880 FILLER_0_103_2242
*881 FILLER_0_103_2306
*882 FILLER_0_103_2312
*883 FILLER_0_103_2376
*884 FILLER_0_103_2382
*885 FILLER_0_103_2446
*886 FILLER_0_103_2452
*887 FILLER_0_103_2516
*888 FILLER_0_103_2522
*889 FILLER_0_103_2586
*890 FILLER_0_103_2592
*891 FILLER_0_103_2656
*892 FILLER_0_103_2662
*893 FILLER_0_103_2726
*894 FILLER_0_103_2732
*895 FILLER_0_103_276
*896 FILLER_0_103_2796
*897 FILLER_0_103_2802
*898 FILLER_0_103_282
*899 FILLER_0_103_2866
*900 FILLER_0_103_2872
*901 FILLER_0_103_2936
*902 FILLER_0_103_2942
*903 FILLER_0_103_3006
*904 FILLER_0_103_3012
*905 FILLER_0_103_3076
*906 FILLER_0_103_3082
*907 FILLER_0_103_3146
*908 FILLER_0_103_3152
*909 FILLER_0_103_3216
*910 FILLER_0_103_3222
*911 FILLER_0_103_3286
*912 FILLER_0_103_3292
*913 FILLER_0_103_3356
*914 FILLER_0_103_3362
*915 FILLER_0_103_3426
*916 FILLER_0_103_3432
*917 FILLER_0_103_346
*918 FILLER_0_103_3496
*919 FILLER_0_103_3502
*920 FILLER_0_103_352
*921 FILLER_0_103_3566
*922 FILLER_0_103_3572
*923 FILLER_0_103_3636
*924 FILLER_0_103_3642
*925 FILLER_0_103_3706
*926 FILLER_0_103_3712
*927 FILLER_0_103_3776
*928 FILLER_0_103_3782
*929 FILLER_0_103_3846
*930 FILLER_0_103_3852
*931 FILLER_0_103_3916
*932 FILLER_0_103_3922
*933 FILLER_0_103_3986
*934 FILLER_0_103_3992
*935 FILLER_0_103_4056
*936 FILLER_0_103_4062
*937 FILLER_0_103_4126
*938 FILLER_0_103_4132
*939 FILLER_0_103_416
*940 FILLER_0_103_4196
*941 FILLER_0_103_4202
*942 FILLER_0_103_422
*943 FILLER_0_103_4266
*944 FILLER_0_103_4272
*945 FILLER_0_103_4336
*946 FILLER_0_103_4342
*947 FILLER_0_103_4406
*948 FILLER_0_103_4412
*949 FILLER_0_103_4476
*950 FILLER_0_103_4482
*951 FILLER_0_103_4546
*952 FILLER_0_103_4552
*953 FILLER_0_103_4616
*954 FILLER_0_103_4622
*955 FILLER_0_103_4686
*956 FILLER_0_103_4692
*957 FILLER_0_103_4756
*958 FILLER_0_103_4762
*959 FILLER_0_103_4826
*960 FILLER_0_103_4832
*961 FILLER_0_103_486
*962 FILLER_0_103_4896
*963 FILLER_0_103_4902
*964 FILLER_0_103_492
*965 FILLER_0_103_4966
*966 FILLER_0_103_4972
*967 FILLER_0_103_556
*968 FILLER_0_103_562
*969 FILLER_0_103_626
*970 FILLER_0_103_632
*971 FILLER_0_103_66
*972 FILLER_0_103_696
*973 FILLER_0_103_702
*974 FILLER_0_103_72
*975 FILLER_0_103_766
*976 FILLER_0_103_772
*977 FILLER_0_103_836
*978 FILLER_0_103_842
*979 FILLER_0_103_906
*980 FILLER_0_103_912
*981 FILLER_0_103_976
*982 FILLER_0_103_982
*983 FILLER_0_104_101
*984 FILLER_0_104_1011
*985 FILLER_0_104_1017
*986 FILLER_0_104_107
*987 FILLER_0_104_1081
*988 FILLER_0_104_1087
*989 FILLER_0_104_1151
*990 FILLER_0_104_1157
*991 FILLER_0_104_1221
*992 FILLER_0_104_1227
*993 FILLER_0_104_1291
*994 FILLER_0_104_1297
*995 FILLER_0_104_1361
*996 FILLER_0_104_1367
*997 FILLER_0_104_1431
*998 FILLER_0_104_1437
*999 FILLER_0_104_1501
*1000 FILLER_0_104_1507
*1001 FILLER_0_104_1571
*1002 FILLER_0_104_1577
*1003 FILLER_0_104_1641
*1004 FILLER_0_104_1647
*1005 FILLER_0_104_171
*1006 FILLER_0_104_1711
*1007 FILLER_0_104_1717
*1008 FILLER_0_104_177
*1009 FILLER_0_104_1781
*1010 FILLER_0_104_1787
*1011 FILLER_0_104_1851
*1012 FILLER_0_104_1857
*1013 FILLER_0_104_1921
*1014 FILLER_0_104_1927
*1015 FILLER_0_104_1991
*1016 FILLER_0_104_1997
*1017 FILLER_0_104_2
*1018 FILLER_0_104_2061
*1019 FILLER_0_104_2067
*1020 FILLER_0_104_2131
*1021 FILLER_0_104_2137
*1022 FILLER_0_104_2201
*1023 FILLER_0_104_2207
*1024 FILLER_0_104_2271
*1025 FILLER_0_104_2277
*1026 FILLER_0_104_2341
*1027 FILLER_0_104_2347
*1028 FILLER_0_104_241
*1029 FILLER_0_104_2411
*1030 FILLER_0_104_2417
*1031 FILLER_0_104_247
*1032 FILLER_0_104_2481
*1033 FILLER_0_104_2487
*1034 FILLER_0_104_2551
*1035 FILLER_0_104_2557
*1036 FILLER_0_104_2621
*1037 FILLER_0_104_2627
*1038 FILLER_0_104_2691
*1039 FILLER_0_104_2697
*1040 FILLER_0_104_2761
*1041 FILLER_0_104_2767
*1042 FILLER_0_104_2831
*1043 FILLER_0_104_2837
*1044 FILLER_0_104_2901
*1045 FILLER_0_104_2907
*1046 FILLER_0_104_2971
*1047 FILLER_0_104_2977
*1048 FILLER_0_104_3041
*1049 FILLER_0_104_3047
*1050 FILLER_0_104_311
*1051 FILLER_0_104_3111
*1052 FILLER_0_104_3117
*1053 FILLER_0_104_317
*1054 FILLER_0_104_3181
*1055 FILLER_0_104_3187
*1056 FILLER_0_104_3251
*1057 FILLER_0_104_3257
*1058 FILLER_0_104_3321
*1059 FILLER_0_104_3327
*1060 FILLER_0_104_3391
*1061 FILLER_0_104_3397
*1062 FILLER_0_104_34
*1063 FILLER_0_104_3461
*1064 FILLER_0_104_3467
*1065 FILLER_0_104_3531
*1066 FILLER_0_104_3537
*1067 FILLER_0_104_3601
*1068 FILLER_0_104_3607
*1069 FILLER_0_104_3671
*1070 FILLER_0_104_3677
*1071 FILLER_0_104_37
*1072 FILLER_0_104_3741
*1073 FILLER_0_104_3747
*1074 FILLER_0_104_381
*1075 FILLER_0_104_3811
*1076 FILLER_0_104_3817
*1077 FILLER_0_104_387
*1078 FILLER_0_104_3881
*1079 FILLER_0_104_3887
*1080 FILLER_0_104_3951
*1081 FILLER_0_104_3957
*1082 FILLER_0_104_4021
*1083 FILLER_0_104_4027
*1084 FILLER_0_104_4091
*1085 FILLER_0_104_4097
*1086 FILLER_0_104_4161
*1087 FILLER_0_104_4167
*1088 FILLER_0_104_4231
*1089 FILLER_0_104_4237
*1090 FILLER_0_104_4301
*1091 FILLER_0_104_4307
*1092 FILLER_0_104_4371
*1093 FILLER_0_104_4377
*1094 FILLER_0_104_4441
*1095 FILLER_0_104_4447
*1096 FILLER_0_104_451
*1097 FILLER_0_104_4511
*1098 FILLER_0_104_4517
*1099 FILLER_0_104_457
*1100 FILLER_0_104_4581
*1101 FILLER_0_104_4587
*1102 FILLER_0_104_4651
*1103 FILLER_0_104_4657
*1104 FILLER_0_104_4721
*1105 FILLER_0_104_4727
*1106 FILLER_0_104_4791
*1107 FILLER_0_104_4797
*1108 FILLER_0_104_4861
*1109 FILLER_0_104_4867
*1110 FILLER_0_104_4931
*1111 FILLER_0_104_4937
*1112 FILLER_0_104_4969
*1113 FILLER_0_104_4973
*1114 FILLER_0_104_521
*1115 FILLER_0_104_527
*1116 FILLER_0_104_591
*1117 FILLER_0_104_597
*1118 FILLER_0_104_661
*1119 FILLER_0_104_667
*1120 FILLER_0_104_731
*1121 FILLER_0_104_737
*1122 FILLER_0_104_801
*1123 FILLER_0_104_807
*1124 FILLER_0_104_871
*1125 FILLER_0_104_877
*1126 FILLER_0_104_941
*1127 FILLER_0_104_947
*1128 FILLER_0_105_1046
*1129 FILLER_0_105_1052
*1130 FILLER_0_105_1116
*1131 FILLER_0_105_1122
*1132 FILLER_0_105_1186
*1133 FILLER_0_105_1192
*1134 FILLER_0_105_1256
*1135 FILLER_0_105_1262
*1136 FILLER_0_105_1326
*1137 FILLER_0_105_1332
*1138 FILLER_0_105_136
*1139 FILLER_0_105_1396
*1140 FILLER_0_105_1402
*1141 FILLER_0_105_142
*1142 FILLER_0_105_1466
*1143 FILLER_0_105_1472
*1144 FILLER_0_105_1536
*1145 FILLER_0_105_1542
*1146 FILLER_0_105_1606
*1147 FILLER_0_105_1612
*1148 FILLER_0_105_1676
*1149 FILLER_0_105_1682
*1150 FILLER_0_105_1746
*1151 FILLER_0_105_1752
*1152 FILLER_0_105_1816
*1153 FILLER_0_105_1822
*1154 FILLER_0_105_1886
*1155 FILLER_0_105_1892
*1156 FILLER_0_105_1956
*1157 FILLER_0_105_1962
*1158 FILLER_0_105_2
*1159 FILLER_0_105_2026
*1160 FILLER_0_105_2032
*1161 FILLER_0_105_206
*1162 FILLER_0_105_2096
*1163 FILLER_0_105_2102
*1164 FILLER_0_105_212
*1165 FILLER_0_105_2166
*1166 FILLER_0_105_2172
*1167 FILLER_0_105_2236
*1168 FILLER_0_105_2242
*1169 FILLER_0_105_2306
*1170 FILLER_0_105_2312
*1171 FILLER_0_105_2376
*1172 FILLER_0_105_2382
*1173 FILLER_0_105_2446
*1174 FILLER_0_105_2452
*1175 FILLER_0_105_2516
*1176 FILLER_0_105_2522
*1177 FILLER_0_105_2586
*1178 FILLER_0_105_2592
*1179 FILLER_0_105_2656
*1180 FILLER_0_105_2662
*1181 FILLER_0_105_2726
*1182 FILLER_0_105_2732
*1183 FILLER_0_105_276
*1184 FILLER_0_105_2796
*1185 FILLER_0_105_2802
*1186 FILLER_0_105_282
*1187 FILLER_0_105_2866
*1188 FILLER_0_105_2872
*1189 FILLER_0_105_2936
*1190 FILLER_0_105_2942
*1191 FILLER_0_105_3006
*1192 FILLER_0_105_3012
*1193 FILLER_0_105_3076
*1194 FILLER_0_105_3082
*1195 FILLER_0_105_3146
*1196 FILLER_0_105_3152
*1197 FILLER_0_105_3216
*1198 FILLER_0_105_3222
*1199 FILLER_0_105_3286
*1200 FILLER_0_105_3292
*1201 FILLER_0_105_3356
*1202 FILLER_0_105_3362
*1203 FILLER_0_105_3426
*1204 FILLER_0_105_3432
*1205 FILLER_0_105_346
*1206 FILLER_0_105_3496
*1207 FILLER_0_105_3502
*1208 FILLER_0_105_352
*1209 FILLER_0_105_3566
*1210 FILLER_0_105_3572
*1211 FILLER_0_105_3636
*1212 FILLER_0_105_3642
*1213 FILLER_0_105_3706
*1214 FILLER_0_105_3712
*1215 FILLER_0_105_3776
*1216 FILLER_0_105_3782
*1217 FILLER_0_105_3846
*1218 FILLER_0_105_3852
*1219 FILLER_0_105_3916
*1220 FILLER_0_105_3922
*1221 FILLER_0_105_3986
*1222 FILLER_0_105_3992
*1223 FILLER_0_105_4056
*1224 FILLER_0_105_4062
*1225 FILLER_0_105_4126
*1226 FILLER_0_105_4132
*1227 FILLER_0_105_416
*1228 FILLER_0_105_4196
*1229 FILLER_0_105_4202
*1230 FILLER_0_105_422
*1231 FILLER_0_105_4266
*1232 FILLER_0_105_4272
*1233 FILLER_0_105_4336
*1234 FILLER_0_105_4342
*1235 FILLER_0_105_4406
*1236 FILLER_0_105_4412
*1237 FILLER_0_105_4476
*1238 FILLER_0_105_4482
*1239 FILLER_0_105_4546
*1240 FILLER_0_105_4552
*1241 FILLER_0_105_4616
*1242 FILLER_0_105_4622
*1243 FILLER_0_105_4686
*1244 FILLER_0_105_4692
*1245 FILLER_0_105_4756
*1246 FILLER_0_105_4762
*1247 FILLER_0_105_4826
*1248 FILLER_0_105_4832
*1249 FILLER_0_105_486
*1250 FILLER_0_105_4896
*1251 FILLER_0_105_4902
*1252 FILLER_0_105_492
*1253 FILLER_0_105_4966
*1254 FILLER_0_105_4972
*1255 FILLER_0_105_556
*1256 FILLER_0_105_562
*1257 FILLER_0_105_626
*1258 FILLER_0_105_632
*1259 FILLER_0_105_66
*1260 FILLER_0_105_696
*1261 FILLER_0_105_702
*1262 FILLER_0_105_72
*1263 FILLER_0_105_766
*1264 FILLER_0_105_772
*1265 FILLER_0_105_836
*1266 FILLER_0_105_842
*1267 FILLER_0_105_906
*1268 FILLER_0_105_912
*1269 FILLER_0_105_976
*1270 FILLER_0_105_982
*1271 FILLER_0_106_101
*1272 FILLER_0_106_1011
*1273 FILLER_0_106_1017
*1274 FILLER_0_106_107
*1275 FILLER_0_106_1081
*1276 FILLER_0_106_1087
*1277 FILLER_0_106_1151
*1278 FILLER_0_106_1157
*1279 FILLER_0_106_1221
*1280 FILLER_0_106_1227
*1281 FILLER_0_106_1291
*1282 FILLER_0_106_1297
*1283 FILLER_0_106_1361
*1284 FILLER_0_106_1367
*1285 FILLER_0_106_1431
*1286 FILLER_0_106_1437
*1287 FILLER_0_106_1501
*1288 FILLER_0_106_1507
*1289 FILLER_0_106_1571
*1290 FILLER_0_106_1577
*1291 FILLER_0_106_1641
*1292 FILLER_0_106_1647
*1293 FILLER_0_106_171
*1294 FILLER_0_106_1711
*1295 FILLER_0_106_1717
*1296 FILLER_0_106_177
*1297 FILLER_0_106_1781
*1298 FILLER_0_106_1787
*1299 FILLER_0_106_1851
*1300 FILLER_0_106_1857
*1301 FILLER_0_106_1921
*1302 FILLER_0_106_1927
*1303 FILLER_0_106_1991
*1304 FILLER_0_106_1997
*1305 FILLER_0_106_2
*1306 FILLER_0_106_2061
*1307 FILLER_0_106_2067
*1308 FILLER_0_106_2131
*1309 FILLER_0_106_2137
*1310 FILLER_0_106_2201
*1311 FILLER_0_106_2207
*1312 FILLER_0_106_2271
*1313 FILLER_0_106_2277
*1314 FILLER_0_106_2341
*1315 FILLER_0_106_2347
*1316 FILLER_0_106_241
*1317 FILLER_0_106_2411
*1318 FILLER_0_106_2417
*1319 FILLER_0_106_247
*1320 FILLER_0_106_2481
*1321 FILLER_0_106_2487
*1322 FILLER_0_106_2551
*1323 FILLER_0_106_2557
*1324 FILLER_0_106_2621
*1325 FILLER_0_106_2627
*1326 FILLER_0_106_2691
*1327 FILLER_0_106_2697
*1328 FILLER_0_106_2761
*1329 FILLER_0_106_2767
*1330 FILLER_0_106_2831
*1331 FILLER_0_106_2837
*1332 FILLER_0_106_2901
*1333 FILLER_0_106_2907
*1334 FILLER_0_106_2971
*1335 FILLER_0_106_2977
*1336 FILLER_0_106_3041
*1337 FILLER_0_106_3047
*1338 FILLER_0_106_311
*1339 FILLER_0_106_3111
*1340 FILLER_0_106_3117
*1341 FILLER_0_106_317
*1342 FILLER_0_106_3181
*1343 FILLER_0_106_3187
*1344 FILLER_0_106_3251
*1345 FILLER_0_106_3257
*1346 FILLER_0_106_3321
*1347 FILLER_0_106_3327
*1348 FILLER_0_106_3391
*1349 FILLER_0_106_3397
*1350 FILLER_0_106_34
*1351 FILLER_0_106_3461
*1352 FILLER_0_106_3467
*1353 FILLER_0_106_3531
*1354 FILLER_0_106_3537
*1355 FILLER_0_106_3601
*1356 FILLER_0_106_3607
*1357 FILLER_0_106_3671
*1358 FILLER_0_106_3677
*1359 FILLER_0_106_37
*1360 FILLER_0_106_3741
*1361 FILLER_0_106_3747
*1362 FILLER_0_106_381
*1363 FILLER_0_106_3811
*1364 FILLER_0_106_3817
*1365 FILLER_0_106_387
*1366 FILLER_0_106_3881
*1367 FILLER_0_106_3887
*1368 FILLER_0_106_3951
*1369 FILLER_0_106_3957
*1370 FILLER_0_106_4021
*1371 FILLER_0_106_4027
*1372 FILLER_0_106_4091
*1373 FILLER_0_106_4097
*1374 FILLER_0_106_4161
*1375 FILLER_0_106_4167
*1376 FILLER_0_106_4231
*1377 FILLER_0_106_4237
*1378 FILLER_0_106_4301
*1379 FILLER_0_106_4307
*1380 FILLER_0_106_4371
*1381 FILLER_0_106_4377