*SPEF "ieee 1481-1999"
*DESIGN "ADC_LogiCompilation"
*DATE "11:11:11 Fri 11 11, 1111"
*VENDOR "OpenRCX"
*PROGRAM "Parallel Extraction"
*VERSION "1.0"
*DESIGN_FLOW "NAME_SCOPE LOCAL" "PIN_CAP NONE"
*DIVIDER /
*DELIMITER :
*BUS_DELIMITER []
*T_UNIT 1 NS
*C_UNIT 1 PF
*R_UNIT 1 OHM
*L_UNIT 1 HENRY

*NAME_MAP
*1 io_in[0]
*2 io_in[10]
*3 io_in[11]
*4 io_in[12]
*5 io_in[1]
*6 io_in[2]
*7 io_in[3]
*8 io_in[4]
*9 io_in[5]
*10 io_in[6]
*11 io_in[7]
*12 io_in[8]
*13 io_in[9]
*14 net70
*15 net66
*16 net67
*17 net68
*18 net32
*19 net33
*20 net34
*21 net35
*22 net36
*23 net37
*24 net38
*25 net71
*26 net39
*27 net40
*28 net41
*29 net42
*30 net43
*31 net44
*32 net45
*33 net46
*34 net47
*35 net48
*36 net58
*37 net49
*38 net50
*39 net51
*40 net52
*41 net53
*42 net54
*43 net55
*44 net56
*45 net59
*46 net60
*47 net61
*48 net62
*49 net63
*50 net64
*51 net65
*52 io_out[0]
*53 io_out[1]
*54 io_out[2]
*55 io_out[3]
*56 io_out[4]
*57 io_out[5]
*58 io_out[6]
*59 io_out[7]
*60 io_out[8]
*61 io_out[9]
*64 wb_clk_i
*65 CompBus
*66 Flash_Logic\.B\[0\]
*67 Flash_Logic\.B\[1\]
*68 Flash_Logic\.B\[2\]
*69 Flash_Logic\.Bx\[0\]
*70 Flash_Logic\.Bx\[1\]
*71 Flash_Logic\.Bx\[2\]
*72 Flash_Logic\.Samp
*73 SAR_Logic_Conv\.Comp
*74 SAR_Logic_Conv\.FF_B0\.B
*75 SAR_Logic_Conv\.FF_B0\.clk
*76 SAR_Logic_Conv\.FF_B0\.set
*77 SAR_Logic_Conv\.FF_B1\.B
*78 SAR_Logic_Conv\.FF_B1\.set
*79 SAR_Logic_Conv\.FF_B2\.B
*80 SAR_Logic_Conv\.FF_B2\.set
*81 SAR_Logic_Conv\.FF_B3\.B
*82 SAR_Logic_Conv\.FF_B3\.set
*83 SAR_Logic_Conv\.FF_B4\.B
*84 SAR_Logic_Conv\.FF_B4\.set
*85 SAR_Logic_Conv\.FF_B5\.B
*86 SAR_Logic_Conv\.FF_B5\.set
*87 SAR_Logic_Conv\.FF_B6\.B
*88 SAR_Logic_Conv\.FF_B6\.set
*89 SAR_Logic_Conv\.FF_B7\.B
*90 SAR_Logic_Conv\.FF_B7\.set
*91 SAR_Logic_Conv\.FF_B8\.B
*92 SAR_Logic_Conv\.FF_B8\.set
*93 SAR_Logic_Conv\.FF_B9\.B
*94 SAR_Logic_Conv\.FF_B9\.set
*95 SAR_Logic_Monot\.FF_B0\.B
*96 SAR_Logic_Monot\.FF_B0\.clkx
*97 SAR_Logic_Monot\.FF_B1\.B
*98 SAR_Logic_Monot\.FF_B1\.clkx
*99 SAR_Logic_Monot\.FF_B2\.B
*100 SAR_Logic_Monot\.FF_B2\.clkx
*101 SAR_Logic_Monot\.FF_B3\.B
*102 SAR_Logic_Monot\.FF_B3\.clkx
*103 SAR_Logic_Monot\.FF_B4\.B
*104 SAR_Logic_Monot\.FF_B4\.clkx
*105 SAR_Logic_Monot\.FF_B5\.B
*106 SAR_Logic_Monot\.FF_B5\.clkx
*107 SAR_Logic_Monot\.FF_B6\.B
*108 SAR_Logic_Monot\.FF_B6\.clkx
*109 SAR_Logic_Monot\.FF_B7\.B
*110 SAR_Logic_Monot\.FF_B7\.clkx
*111 SAR_Logic_Monot\.FF_B8\.B
*112 SAR_Logic_Monot\.FF_B8\.clkx
*113 SAR_Logic_Monot\.FF_B9\.B
*114 SAR_Logic_Monot\.FF_B9\.clkx
*115 _000_
*116 _001_
*117 _002_
*118 _003_
*119 _004_
*120 _005_
*121 _006_
*122 _007_
*123 _008_
*124 _009_
*125 _010_
*126 _011_
*127 _012_
*128 _013_
*129 _014_
*130 _015_
*131 _016_
*132 _017_
*133 _018_
*134 _019_
*135 _020_
*136 _021_
*137 _022_
*138 _023_
*139 _024_
*140 _025_
*141 _026_
*142 _027_
*143 _028_
*144 _029_
*145 _030_
*146 _031_
*147 _032_
*148 _033_
*149 _034_
*150 _035_
*151 _036_
*152 _037_
*153 _038_
*154 _039_
*155 _040_
*156 _041_
*157 _042_
*158 _043_
*159 _044_
*160 _045_
*161 _046_
*162 _047_
*163 _048_
*164 _049_
*165 _050_
*166 _051_
*167 _052_
*168 _053_
*169 _054_
*170 _055_
*171 _056_
*172 _057_
*173 _058_
*174 _059_
*175 _060_
*176 _061_
*177 _062_
*178 _063_
*179 _064_
*180 _065_
*181 _066_
*182 _067_
*183 _068_
*184 _069_
*185 _070_
*186 _071_
*187 _072_
*188 _073_
*189 _074_
*190 _075_
*191 _076_
*192 _077_
*193 _078_
*194 _079_
*195 _080_
*196 _081_
*197 _082_
*198 _083_
*199 _084_
*200 _085_
*201 _086_
*202 _087_
*203 _088_
*204 _089_
*205 _090_
*206 _091_
*207 _092_
*208 _093_
*209 _094_
*210 _095_
*211 _096_
*212 _097_
*213 _098_
*214 _099_
*215 _100_
*216 _101_
*217 _102_
*218 _103_
*219 _104_
*220 _105_
*221 _106_
*222 _107_
*223 _108_
*224 _109_
*225 _110_
*226 _111_
*227 _112_
*228 clknet_0_wb_clk_i
*229 clknet_1_0__leaf_wb_clk_i
*230 clknet_1_1__leaf_wb_clk_i
*231 net1
*232 net10
*233 net11
*234 net12
*235 net13
*236 net14
*237 net15
*238 net16
*239 net17
*240 net18
*241 net19
*242 net2
*243 net20
*244 net21
*245 net22
*246 net23
*247 net24
*248 net25
*249 net26
*250 net27
*251 net28
*252 net29
*253 net3
*254 net30
*255 net31
*256 net4
*257 net5
*258 net57
*259 net6
*260 net69
*261 net7
*262 net72
*263 net73
*264 net74
*265 net75
*266 net76
*267 net77
*268 net78
*269 net79
*270 net8
*271 net80
*272 net81
*273 net82
*274 net83
*275 net84
*276 net85
*277 net86
*278 net87
*279 net9
*280 ADC_LogiCompilation_32
*281 ADC_LogiCompilation_33
*282 ADC_LogiCompilation_34
*283 ADC_LogiCompilation_35
*284 ADC_LogiCompilation_36
*285 ADC_LogiCompilation_37
*286 ADC_LogiCompilation_38
*287 ADC_LogiCompilation_39
*288 ADC_LogiCompilation_40
*289 ADC_LogiCompilation_41
*290 ADC_LogiCompilation_42
*291 ADC_LogiCompilation_43
*292 ADC_LogiCompilation_44
*293 ADC_LogiCompilation_45
*294 ADC_LogiCompilation_46
*295 ADC_LogiCompilation_47
*296 ADC_LogiCompilation_48
*297 ADC_LogiCompilation_49
*298 ADC_LogiCompilation_50
*299 ADC_LogiCompilation_51
*300 ADC_LogiCompilation_52
*301 ADC_LogiCompilation_53
*302 ADC_LogiCompilation_54
*303 ADC_LogiCompilation_55
*304 ADC_LogiCompilation_56
*305 ADC_LogiCompilation_58
*306 ADC_LogiCompilation_59
*307 ADC_LogiCompilation_60
*308 ADC_LogiCompilation_61
*309 ADC_LogiCompilation_62
*310 ADC_LogiCompilation_63
*311 ADC_LogiCompilation_64
*312 ADC_LogiCompilation_65
*313 ADC_LogiCompilation_66
*314 ADC_LogiCompilation_67
*315 ADC_LogiCompilation_68
*316 ADC_LogiCompilation_70
*317 ADC_LogiCompilation_71
*318 ANTENNA_1
*319 ANTENNA_2
*320 ANTENNA_3
*321 ANTENNA_4
*322 ANTENNA_5
*323 ANTENNA_6
*324 ANTENNA_7
*325 ANTENNA_8
*326 ANTENNA__133__I
*327 ANTENNA__134__I
*328 ANTENNA__137__A1
*329 ANTENNA__137__A2
*330 ANTENNA__140__A2
*331 ANTENNA__166__A2
*332 ANTENNA__169__A2
*333 ANTENNA__172__A2
*334 ANTENNA__173__I
*335 ANTENNA__174__A1
*336 ANTENNA__174__A2
*337 ANTENNA__174__A3
*338 ANTENNA__174__A4
*339 ANTENNA__175__A1
*340 ANTENNA__175__A2
*341 ANTENNA__176__I
*342 ANTENNA__177__A1
*343 ANTENNA__177__A2
*344 ANTENNA__178__A1
*345 ANTENNA__178__A2
*346 ANTENNA__178__A3
*347 ANTENNA__179__A1
*348 ANTENNA__179__A2
*349 ANTENNA__181__I
*350 ANTENNA__182__A1
*351 ANTENNA__182__A2
*352 ANTENNA__185__I
*353 ANTENNA__186__A1
*354 ANTENNA__186__A2
*355 ANTENNA__219__I
*356 ANTENNA__220__I
*357 ANTENNA__221__I
*358 ANTENNA__222__I
*359 ANTENNA__234__I
*360 ANTENNA__235__I
*361 ANTENNA__236__I
*362 ANTENNA__237__I
*363 ANTENNA__241__CLKN
*364 ANTENNA__242__CLK
*365 ANTENNA__243__CLKN
*366 ANTENNA__253__CLK
*367 ANTENNA__254__CLK
*368 ANTENNA__255__CLK
*369 ANTENNA__257__CLK
*370 ANTENNA__258__CLK
*371 ANTENNA__259__CLK
*372 ANTENNA__260__CLK
*373 ANTENNA__261__CLK
*374 ANTENNA__262__CLK
*375 ANTENNA__263__CLK
*376 ANTENNA__264__CLK
*377 ANTENNA__265__CLK
*378 ANTENNA__266__CLK
*379 ANTENNA__267__CLK
*380 ANTENNA__268__CLK
*381 ANTENNA__269__CLK
*382 ANTENNA__270__CLK
*383 ANTENNA__270__D
*384 ANTENNA__271__CLK
*385 ANTENNA__272__CLK
*386 ANTENNA__273__CLK
*387 ANTENNA__274__CLK
*388 ANTENNA__275__CLK
*389 ANTENNA__276__CLK
*390 ANTENNA__277__CLK
*391 ANTENNA__281__CLK
*392 ANTENNA_clkbuf_0_wb_clk_i_I
*393 ANTENNA_input10_I
*394 ANTENNA_input1_I
*395 ANTENNA_input2_I
*396 ANTENNA_input3_I
*397 ANTENNA_input4_I
*398 ANTENNA_input5_I
*399 ANTENNA_input6_I
*400 ANTENNA_input7_I
*401 ANTENNA_input8_I
*402 ANTENNA_input9_I
*403 ANTENNA_output11_I
*404 ANTENNA_output12_I
*405 ANTENNA_output13_I
*406 ANTENNA_output14_I
*407 ANTENNA_output16_I
*408 ANTENNA_output17_I
*409 ANTENNA_output18_I
*410 ANTENNA_output19_I
*411 ANTENNA_output20_I
*412 ANTENNA_wire21_I
*413 ANTENNA_wire22_I
*414 ANTENNA_wire23_I
*415 ANTENNA_wire24_I
*416 FILLER_0_0_1022
*417 FILLER_0_0_104
*418 FILLER_0_0_1056
*419 FILLER_0_0_1090
*420 FILLER_0_0_1124
*421 FILLER_0_0_1158
*422 FILLER_0_0_1192
*423 FILLER_0_0_1226
*424 FILLER_0_0_1260
*425 FILLER_0_0_1294
*426 FILLER_0_0_1328
*427 FILLER_0_0_1362
*428 FILLER_0_0_138
*429 FILLER_0_0_1396
*430 FILLER_0_0_1430
*431 FILLER_0_0_1464
*432 FILLER_0_0_1498
*433 FILLER_0_0_1532
*434 FILLER_0_0_1566
*435 FILLER_0_0_1600
*436 FILLER_0_0_1634
*437 FILLER_0_0_1668
*438 FILLER_0_0_1702
*439 FILLER_0_0_172
*440 FILLER_0_0_1736
*441 FILLER_0_0_1770
*442 FILLER_0_0_1804
*443 FILLER_0_0_1838
*444 FILLER_0_0_1872
*445 FILLER_0_0_1906
*446 FILLER_0_0_1940
*447 FILLER_0_0_1974
*448 FILLER_0_0_2
*449 FILLER_0_0_2008
*450 FILLER_0_0_2042
*451 FILLER_0_0_206
*452 FILLER_0_0_2076
*453 FILLER_0_0_2110
*454 FILLER_0_0_2144
*455 FILLER_0_0_2178
*456 FILLER_0_0_2212
*457 FILLER_0_0_2246
*458 FILLER_0_0_2280
*459 FILLER_0_0_2314
*460 FILLER_0_0_2348
*461 FILLER_0_0_2382
*462 FILLER_0_0_240
*463 FILLER_0_0_2416
*464 FILLER_0_0_2450
*465 FILLER_0_0_2484
*466 FILLER_0_0_2518
*467 FILLER_0_0_2552
*468 FILLER_0_0_2586
*469 FILLER_0_0_2620
*470 FILLER_0_0_2654
*471 FILLER_0_0_2688
*472 FILLER_0_0_2722
*473 FILLER_0_0_274
*474 FILLER_0_0_2756
*475 FILLER_0_0_2790
*476 FILLER_0_0_2824
*477 FILLER_0_0_2858
*478 FILLER_0_0_2892
*479 FILLER_0_0_2926
*480 FILLER_0_0_2960
*481 FILLER_0_0_2994
*482 FILLER_0_0_3028
*483 FILLER_0_0_3062
*484 FILLER_0_0_308
*485 FILLER_0_0_3096
*486 FILLER_0_0_3130
*487 FILLER_0_0_3164
*488 FILLER_0_0_3198
*489 FILLER_0_0_3232
*490 FILLER_0_0_3266
*491 FILLER_0_0_3300
*492 FILLER_0_0_3334
*493 FILLER_0_0_3368
*494 FILLER_0_0_3402
*495 FILLER_0_0_342
*496 FILLER_0_0_3436
*497 FILLER_0_0_3470
*498 FILLER_0_0_3504
*499 FILLER_0_0_3538
*500 FILLER_0_0_3572
*501 FILLER_0_0_36
*502 FILLER_0_0_3606
*503 FILLER_0_0_3640
*504 FILLER_0_0_3674
*505 FILLER_0_0_3708
*506 FILLER_0_0_3742
*507 FILLER_0_0_376
*508 FILLER_0_0_3776
*509 FILLER_0_0_3810
*510 FILLER_0_0_3844
*511 FILLER_0_0_3878
*512 FILLER_0_0_3912
*513 FILLER_0_0_3946
*514 FILLER_0_0_3980
*515 FILLER_0_0_4014
*516 FILLER_0_0_4048
*517 FILLER_0_0_4082
*518 FILLER_0_0_410
*519 FILLER_0_0_4116
*520 FILLER_0_0_4150
*521 FILLER_0_0_4184
*522 FILLER_0_0_4218
*523 FILLER_0_0_4252
*524 FILLER_0_0_4286
*525 FILLER_0_0_4320
*526 FILLER_0_0_4354
*527 FILLER_0_0_4388
*528 FILLER_0_0_4422
*529 FILLER_0_0_444
*530 FILLER_0_0_4456
*531 FILLER_0_0_4490
*532 FILLER_0_0_4524
*533 FILLER_0_0_4558
*534 FILLER_0_0_4592
*535 FILLER_0_0_4626
*536 FILLER_0_0_4660
*537 FILLER_0_0_4694
*538 FILLER_0_0_4728
*539 FILLER_0_0_4762
*540 FILLER_0_0_478
*541 FILLER_0_0_4796
*542 FILLER_0_0_4830
*543 FILLER_0_0_4864
*544 FILLER_0_0_4898
*545 FILLER_0_0_4932
*546 FILLER_0_0_4966
*547 FILLER_0_0_512
*548 FILLER_0_0_546
*549 FILLER_0_0_580
*550 FILLER_0_0_614
*551 FILLER_0_0_648
*552 FILLER_0_0_682
*553 FILLER_0_0_70
*554 FILLER_0_0_716
*555 FILLER_0_0_750
*556 FILLER_0_0_784
*557 FILLER_0_0_818
*558 FILLER_0_0_852
*559 FILLER_0_0_886
*560 FILLER_0_0_920
*561 FILLER_0_0_954
*562 FILLER_0_0_988
*563 FILLER_0_100_101
*564 FILLER_0_100_1011
*565 FILLER_0_100_1017
*566 FILLER_0_100_107
*567 FILLER_0_100_1081
*568 FILLER_0_100_1087
*569 FILLER_0_100_1151
*570 FILLER_0_100_1157
*571 FILLER_0_100_1221
*572 FILLER_0_100_1227
*573 FILLER_0_100_1291
*574 FILLER_0_100_1297
*575 FILLER_0_100_1361
*576 FILLER_0_100_1367
*577 FILLER_0_100_1431
*578 FILLER_0_100_1437
*579 FILLER_0_100_1501
*580 FILLER_0_100_1507
*581 FILLER_0_100_1571
*582 FILLER_0_100_1577
*583 FILLER_0_100_1641
*584 FILLER_0_100_1647
*585 FILLER_0_100_171
*586 FILLER_0_100_1711
*587 FILLER_0_100_1717
*588 FILLER_0_100_177
*589 FILLER_0_100_1781
*590 FILLER_0_100_1787
*591 FILLER_0_100_1851
*592 FILLER_0_100_1857
*593 FILLER_0_100_1921
*594 FILLER_0_100_1927
*595 FILLER_0_100_1991
*596 FILLER_0_100_1997
*597 FILLER_0_100_2
*598 FILLER_0_100_2061
*599 FILLER_0_100_2067
*600 FILLER_0_100_2131
*601 FILLER_0_100_2137
*602 FILLER_0_100_2201
*603 FILLER_0_100_2207
*604 FILLER_0_100_2271
*605 FILLER_0_100_2277
*606 FILLER_0_100_2341
*607 FILLER_0_100_2347
*608 FILLER_0_100_241
*609 FILLER_0_100_2411
*610 FILLER_0_100_2417
*611 FILLER_0_100_247
*612 FILLER_0_100_2481
*613 FILLER_0_100_2487
*614 FILLER_0_100_2551
*615 FILLER_0_100_2557
*616 FILLER_0_100_2621
*617 FILLER_0_100_2627
*618 FILLER_0_100_2691
*619 FILLER_0_100_2697
*620 FILLER_0_100_2761
*621 FILLER_0_100_2767
*622 FILLER_0_100_2831
*623 FILLER_0_100_2837
*624 FILLER_0_100_2901
*625 FILLER_0_100_2907
*626 FILLER_0_100_2971
*627 FILLER_0_100_2977
*628 FILLER_0_100_3041
*629 FILLER_0_100_3047
*630 FILLER_0_100_311
*631 FILLER_0_100_3111
*632 FILLER_0_100_3117
*633 FILLER_0_100_317
*634 FILLER_0_100_3181
*635 FILLER_0_100_3187
*636 FILLER_0_100_3251
*637 FILLER_0_100_3257
*638 FILLER_0_100_3321
*639 FILLER_0_100_3327
*640 FILLER_0_100_3391
*641 FILLER_0_100_3397
*642 FILLER_0_100_34
*643 FILLER_0_100_3461
*644 FILLER_0_100_3467
*645 FILLER_0_100_3531
*646 FILLER_0_100_3537
*647 FILLER_0_100_3601
*648 FILLER_0_100_3607
*649 FILLER_0_100_3671
*650 FILLER_0_100_3677
*651 FILLER_0_100_37
*652 FILLER_0_100_3741
*653 FILLER_0_100_3747
*654 FILLER_0_100_381
*655 FILLER_0_100_3811
*656 FILLER_0_100_3817
*657 FILLER_0_100_387
*658 FILLER_0_100_3881
*659 FILLER_0_100_3887
*660 FILLER_0_100_3951
*661 FILLER_0_100_3957
*662 FILLER_0_100_4021
*663 FILLER_0_100_4027
*664 FILLER_0_100_4091
*665 FILLER_0_100_4097
*666 FILLER_0_100_4161
*667 FILLER_0_100_4167
*668 FILLER_0_100_4231
*669 FILLER_0_100_4237
*670 FILLER_0_100_4301
*671 FILLER_0_100_4307
*672 FILLER_0_100_4371
*673 FILLER_0_100_4377
*674 FILLER_0_100_4441
*675 FILLER_0_100_4447
*676 FILLER_0_100_451
*677 FILLER_0_100_4511
*678 FILLER_0_100_4517
*679 FILLER_0_100_457
*680 FILLER_0_100_4581
*681 FILLER_0_100_4587
*682 FILLER_0_100_4651
*683 FILLER_0_100_4657
*684 FILLER_0_100_4721
*685 FILLER_0_100_4727
*686 FILLER_0_100_4791
*687 FILLER_0_100_4797
*688 FILLER_0_100_4861
*689 FILLER_0_100_4867
*690 FILLER_0_100_4931
*691 FILLER_0_100_4937
*692 FILLER_0_100_4969
*693 FILLER_0_100_4973
*694 FILLER_0_100_521
*695 FILLER_0_100_527
*696 FILLER_0_100_591
*697 FILLER_0_100_597
*698 FILLER_0_100_661
*699 FILLER_0_100_667
*700 FILLER_0_100_731
*701 FILLER_0_100_737
*702 FILLER_0_100_801
*703 FILLER_0_100_807
*704 FILLER_0_100_871
*705 FILLER_0_100_877
*706 FILLER_0_100_941
*707 FILLER_0_100_947
*708 FILLER_0_101_1046
*709 FILLER_0_101_1052
*710 FILLER_0_101_1116
*711 FILLER_0_101_1122
*712 FILLER_0_101_1186
*713 FILLER_0_101_1192
*714 FILLER_0_101_1256
*715 FILLER_0_101_1262
*716 FILLER_0_101_1326
*717 FILLER_0_101_1332
*718 FILLER_0_101_136
*719 FILLER_0_101_1396
*720 FILLER_0_101_1402
*721 FILLER_0_101_142
*722 FILLER_0_101_1466
*723 FILLER_0_101_1472
*724 FILLER_0_101_1536
*725 FILLER_0_101_1542
*726 FILLER_0_101_1606
*727 FILLER_0_101_1612
*728 FILLER_0_101_1676
*729 FILLER_0_101_1682
*730 FILLER_0_101_1746
*731 FILLER_0_101_1752
*732 FILLER_0_101_1816
*733 FILLER_0_101_1822
*734 FILLER_0_101_1886
*735 FILLER_0_101_1892
*736 FILLER_0_101_1956
*737 FILLER_0_101_1962
*738 FILLER_0_101_2
*739 FILLER_0_101_2026
*740 FILLER_0_101_2032
*741 FILLER_0_101_206
*742 FILLER_0_101_2096
*743 FILLER_0_101_2102
*744 FILLER_0_101_212
*745 FILLER_0_101_2166
*746 FILLER_0_101_2172
*747 FILLER_0_101_2236
*748 FILLER_0_101_2242
*749 FILLER_0_101_2306
*750 FILLER_0_101_2312
*751 FILLER_0_101_2376
*752 FILLER_0_101_2382
*753 FILLER_0_101_2446
*754 FILLER_0_101_2452
*755 FILLER_0_101_2516
*756 FILLER_0_101_2522
*757 FILLER_0_101_2586
*758 FILLER_0_101_2592
*759 FILLER_0_101_2656
*760 FILLER_0_101_2662
*761 FILLER_0_101_2726
*762 FILLER_0_101_2732
*763 FILLER_0_101_276
*764 FILLER_0_101_2796
*765 FILLER_0_101_2802
*766 FILLER_0_101_282
*767 FILLER_0_101_2866
*768 FILLER_0_101_2872
*769 FILLER_0_101_2936
*770 FILLER_0_101_2942
*771 FILLER_0_101_3006
*772 FILLER_0_101_3012
*773 FILLER_0_101_3076
*774 FILLER_0_101_3082
*775 FILLER_0_101_3146
*776 FILLER_0_101_3152
*777 FILLER_0_101_3216
*778 FILLER_0_101_3222
*779 FILLER_0_101_3286
*780 FILLER_0_101_3292
*781 FILLER_0_101_3356
*782 FILLER_0_101_3362
*783 FILLER_0_101_3426
*784 FILLER_0_101_3432
*785 FILLER_0_101_346
*786 FILLER_0_101_3496
*787 FILLER_0_101_3502
*788 FILLER_0_101_352
*789 FILLER_0_101_3566
*790 FILLER_0_101_3572
*791 FILLER_0_101_3636
*792 FILLER_0_101_3642
*793 FILLER_0_101_3706
*794 FILLER_0_101_3712
*795 FILLER_0_101_3776
*796 FILLER_0_101_3782
*797 FILLER_0_101_3846
*798 FILLER_0_101_3852
*799 FILLER_0_101_3916
*800 FILLER_0_101_3922
*801 FILLER_0_101_3986
*802 FILLER_0_101_3992
*803 FILLER_0_101_4056
*804 FILLER_0_101_4062
*805 FILLER_0_101_4126
*806 FILLER_0_101_4132
*807 FILLER_0_101_416
*808 FILLER_0_101_4196
*809 FILLER_0_101_4202
*810 FILLER_0_101_422
*811 FILLER_0_101_4266
*812 FILLER_0_101_4272
*813 FILLER_0_101_4336
*814 FILLER_0_101_4342
*815 FILLER_0_101_4406
*816 FILLER_0_101_4412
*817 FILLER_0_101_4476
*818 FILLER_0_101_4482
*819 FILLER_0_101_4546
*820 FILLER_0_101_4552
*821 FILLER_0_101_4616
*822 FILLER_0_101_4622
*823 FILLER_0_101_4686
*824 FILLER_0_101_4692
*825 FILLER_0_101_4756
*826 FILLER_0_101_4762
*827 FILLER_0_101_4826
*828 FILLER_0_101_4832
*829 FILLER_0_101_486
*830 FILLER_0_101_4896
*831 FILLER_0_101_4902
*832 FILLER_0_101_492
*833 FILLER_0_101_4966
*834 FILLER_0_101_4972
*835 FILLER_0_101_556
*836 FILLER_0_101_562
*837 FILLER_0_101_626
*838 FILLER_0_101_632
*839 FILLER_0_101_66
*840 FILLER_0_101_696
*841 FILLER_0_101_702
*842 FILLER_0_101_72
*843 FILLER_0_101_766
*844 FILLER_0_101_772
*845 FILLER_0_101_836
*846 FILLER_0_101_842
*847 FILLER_0_101_906
*848 FILLER_0_101_912
*849 FILLER_0_101_976
*850 FILLER_0_101_982
*851 FILLER_0_102_101
*852 FILLER_0_102_1011
*853 FILLER_0_102_1017
*854 FILLER_0_102_107
*855 FILLER_0_102_1081
*856 FILLER_0_102_1087
*857 FILLER_0_102_1151
*858 FILLER_0_102_1157
*859 FILLER_0_102_1221
*860 FILLER_0_102_1227
*861 FILLER_0_102_1291
*862 FILLER_0_102_1297
*863 FILLER_0_102_1361
*864 FILLER_0_102_1367
*865 FILLER_0_102_1431
*866 FILLER_0_102_1437
*867 FILLER_0_102_1501
*868 FILLER_0_102_1507
*869 FILLER_0_102_1571
*870 FILLER_0_102_1577
*871 FILLER_0_102_1641
*872 FILLER_0_102_1647
*873 FILLER_0_102_171
*874 FILLER_0_102_1711
*875 FILLER_0_102_1717
*876 FILLER_0_102_177
*877 FILLER_0_102_1781
*878 FILLER_0_102_1787
*879 FILLER_0_102_1851
*880 FILLER_0_102_1857
*881 FILLER_0_102_1921
*882 FILLER_0_102_1927
*883 FILLER_0_102_1991
*884 FILLER_0_102_1997
*885 FILLER_0_102_2
*886 FILLER_0_102_2061
*887 FILLER_0_102_2067
*888 FILLER_0_102_2131
*889 FILLER_0_102_2137
*890 FILLER_0_102_2201
*891 FILLER_0_102_2207
*892 FILLER_0_102_2271
*893 FILLER_0_102_2277
*894 FILLER_0_102_2341
*895 FILLER_0_102_2347
*896 FILLER_0_102_241
*897 FILLER_0_102_2411
*898 FILLER_0_102_2417
*899 FILLER_0_102_247
*900 FILLER_0_102_2481
*901 FILLER_0_102_2487
*902 FILLER_0_102_2551
*903 FILLER_0_102_2557
*904 FILLER_0_102_2621
*905 FILLER_0_102_2627
*906 FILLER_0_102_2691
*907 FILLER_0_102_2697
*908 FILLER_0_102_2761
*909 FILLER_0_102_2767
*910 FILLER_0_102_2831
*911 FILLER_0_102_2837
*912 FILLER_0_102_2901
*913 FILLER_0_102_2907
*914 FILLER_0_102_2971
*915 FILLER_0_102_2977
*916 FILLER_0_102_3041
*917 FILLER_0_102_3047
*918 FILLER_0_102_311
*919 FILLER_0_102_3111
*920 FILLER_0_102_3117
*921 FILLER_0_102_317
*922 FILLER_0_102_3181
*923 FILLER_0_102_3187
*924 FILLER_0_102_3251
*925 FILLER_0_102_3257
*926 FILLER_0_102_3321
*927 FILLER_0_102_3327
*928 FILLER_0_102_3391
*929 FILLER_0_102_3397
*930 FILLER_0_102_34
*931 FILLER_0_102_3461
*932 FILLER_0_102_3467
*933 FILLER_0_102_3531
*934 FILLER_0_102_3537
*935 FILLER_0_102_3601
*936 FILLER_0_102_3607
*937 FILLER_0_102_3671
*938 FILLER_0_102_3677
*939 FILLER_0_102_37
*940 FILLER_0_102_3741
*941 FILLER_0_102_3747
*942 FILLER_0_102_381
*943 FILLER_0_102_3811
*944 FILLER_0_102_3817
*945 FILLER_0_102_387
*946 FILLER_0_102_3881
*947 FILLER_0_102_3887
*948 FILLER_0_102_3951
*949 FILLER_0_102_3957
*950 FILLER_0_102_4021
*951 FILLER_0_102_4027
*952 FILLER_0_102_4091
*953 FILLER_0_102_4097
*954 FILLER_0_102_4161
*955 FILLER_0_102_4167
*956 FILLER_0_102_4231
*957 FILLER_0_102_4237
*958 FILLER_0_102_4301
*959 FILLER_0_102_4307
*960 FILLER_0_102_4371
*961 FILLER_0_102_4377
*962 FILLER_0_102_4441
*963 FILLER_0_102_4447
*964 FILLER_0_102_451
*965 FILLER_0_102_4511
*966 FILLER_0_102_4517
*967 FILLER_0_102_457
*968 FILLER_0_102_4581
*969 FILLER_0_102_4587
*970 FILLER_0_102_4651
*971 FILLER_0_102_4657
*972 FILLER_0_102_4721
*973 FILLER_0_102_4727
*974 FILLER_0_102_4791
*975 FILLER_0_102_4797
*976 FILLER_0_102_4861
*977 FILLER_0_102_4867
*978 FILLER_0_102_4931
*979 FILLER_0_102_4937
*980 FILLER_0_102_4969
*981 FILLER_0_102_4973
*982 FILLER_0_102_521
*983 FILLER_0_102_527
*984 FILLER_0_102_591
*985 FILLER_0_102_597
*986 FILLER_0_102_661
*987 FILLER_0_102_667
*988 FILLER_0_102_731
*989 FILLER_0_102_737
*990 FILLER_0_102_801
*991 FILLER_0_102_807
*992 FILLER_0_102_871
*993 FILLER_0_102_877
*994 FILLER_0_102_941
*995 FILLER_0_102_947
*996 FILLER_0_103_1046
*997 FILLER_0_103_1052
*998 FILLER_0_103_1116
*999 FILLER_0_103_1122
*1000 FILLER_0_103_1186
*1001 FILLER_0_103_1192
*1002 FILLER_0_103_1256
*1003 FILLER_0_103_1262
*1004 FILLER_0_103_1326
*1005 FILLER_0_103_1332
*1006 FILLER_0_103_136
*1007 FILLER_0_103_1396
*1008 FILLER_0_103_1402
*1009 FILLER_0_103_142
*1010 FILLER_0_103_1466
*1011 FILLER_0_103_1472
*1012 FILLER_0_103_1536
*1013 FILLER_0_103_1542
*1014 FILLER_0_103_1606
*1015 FILLER_0_103_1612
*1016 FILLER_0_103_1676
*1017 FILLER_0_103_1682
*1018 FILLER_0_103_1746
*1019 FILLER_0_103_1752
*1020 FILLER_0_103_1816
*1021 FILLER_0_103_1822
*1022 FILLER_0_103_1886
*1023 FILLER_0_103_1892
*1024 FILLER_0_103_1956
*1025 FILLER_0_103_1962
*1026 FILLER_0_103_2
*1027 FILLER_0_103_2026
*1028 FILLER_0_103_2032
*1029 FILLER_0_103_206
*1030 FILLER_0_103_2096
*1031 FILLER_0_103_2102
*1032 FILLER_0_103_212
*1033 FILLER_0_103_2166
*1034 FILLER_0_103_2172
*1035 FILLER_0_103_2236
*1036 FILLER_0_103_2242
*1037 FILLER_0_103_2306
*1038 FILLER_0_103_2312
*1039 FILLER_0_103_2376
*1040 FILLER_0_103_2382
*1041 FILLER_0_103_2446
*1042 FILLER_0_103_2452
*1043 FILLER_0_103_2516
*1044 FILLER_0_103_2522
*1045 FILLER_0_103_2586
*1046 FILLER_0_103_2592
*1047 FILLER_0_103_2656
*1048 FILLER_0_103_2662
*1049 FILLER_0_103_2726
*1050 FILLER_0_103_2732
*1051 FILLER_0_103_276
*1052 FILLER_0_103_2796
*1053 FILLER_0_103_2802
*1054 FILLER_0_103_282
*1055 FILLER_0_103_2866
*1056 FILLER_0_103_2872
*1057 FILLER_0_103_2936
*1058 FILLER_0_103_2942
*1059 FILLER_0_103_3006
*1060 FILLER_0_103_3012
*1061 FILLER_0_103_3076
*1062 FILLER_0_103_3082
*1063 FILLER_0_103_3146
*1064 FILLER_0_103_3152
*1065 FILLER_0_103_3216
*1066 FILLER_0_103_3222
*1067 FILLER_0_103_3286
*1068 FILLER_0_103_3292
*1069 FILLER_0_103_3356
*1070 FILLER_0_103_3362
*1071 FILLER_0_103_3426
*1072 FILLER_0_103_3432
*1073 FILLER_0_103_346
*1074 FILLER_0_103_3496
*1075 FILLER_0_103_3502
*1076 FILLER_0_103_352
*1077 FILLER_0_103_3566
*1078 FILLER_0_103_3572
*1079 FILLER_0_103_3636
*1080 FILLER_0_103_3642
*1081 FILLER_0_103_3706
*1082 FILLER_0_103_3712
*1083 FILLER_0_103_3776
*1084 FILLER_0_103_3782
*1085 FILLER_0_103_3846
*1086 FILLER_0_103_3852
*1087 FILLER_0_103_3916
*1088 FILLER_0_103_3922
*1089 FILLER_0_103_3986
*1090 FILLER_0_103_3992
*1091 FILLER_0_103_4056
*1092 FILLER_0_103_4062
*1093 FILLER_0_103_4126
*1094 FILLER_0_103_4132
*1095 FILLER_0_103_416
*1096 FILLER_0_103_4196
*1097 FILLER_0_103_4202
*1098 FILLER_0_103_422
*1099 FILLER_0_103_4266
*1100 FILLER_0_103_4272
*1101 FILLER_0_103_4336
*1102 FILLER_0_103_4342
*1103 FILLER_0_103_4406
*1104 FILLER_0_103_4412
*1105 FILLER_0_103_4476
*1106 FILLER_0_103_4482
*1107 FILLER_0_103_4546
*1108 FILLER_0_103_4552
*1109 FILLER_0_103_4616
*1110 FILLER_0_103_4622
*1111 FILLER_0_103_4686
*1112 FILLER_0_103_4692
*1113 FILLER_0_103_4756
*1114 FILLER_0_103_4762
*1115 FILLER_0_103_4826
*1116 FILLER_0_103_4832
*1117 FILLER_0_103_486
*1118 FILLER_0_103_4896
*1119 FILLER_0_103_4902
*1120 FILLER_0_103_492
*1121 FILLER_0_103_4966
*1122 FILLER_0_103_4972
*1123 FILLER_0_103_556
*1124 FILLER_0_103_562
*1125 FILLER_0_103_626
*1126 FILLER_0_103_632
*1127 FILLER_0_103_66
*1128 FILLER_0_103_696
*1129 FILLER_0_103_702
*1130 FILLER_0_103_72
*1131 FILLER_0_103_766
*1132 FILLER_0_103_772
*1133 FILLER_0_103_836
*1134 FILLER_0_103_842
*1135 FILLER_0_103_906
*1136 FILLER_0_103_912
*1137 FILLER_0_103_976
*1138 FILLER_0_103_982
*1139 FILLER_0_104_101
*1140 FILLER_0_104_1011
*1141 FILLER_0_104_1017
*1142 FILLER_0_104_107
*1143 FILLER_0_104_1081
*1144 FILLER_0_104_1087
*1145 FILLER_0_104_1151
*1146 FILLER_0_104_1157
*1147 FILLER_0_104_1221
*1148 FILLER_0_104_1227
*1149 FILLER_0_104_1291
*1150 FILLER_0_104_1297
*1151 FILLER_0_104_1361
*1152 FILLER_0_104_1367
*1153 FILLER_0_104_1431
*1154 FILLER_0_104_1437
*1155 FILLER_0_104_1501
*1156 FILLER_0_104_1507
*1157 FILLER_0_104_1571
*1158 FILLER_0_104_1577
*1159 FILLER_0_104_1641
*1160 FILLER_0_104_1647
*1161 FILLER_0_104_171
*1162 FILLER_0_104_1711
*1163 FILLER_0_104_1717
*1164 FILLER_0_104_177
*1165 FILLER_0_104_1781
*1166 FILLER_0_104_1787
*1167 FILLER_0_104_1851
*1168 FILLER_0_104_1857
*1169 FILLER_0_104_1921
*1170 FILLER_0_104_1927
*1171 FILLER_0_104_1991
*1172 FILLER_0_104_1997
*1173 FILLER_0_104_2061
*1174 FILLER_0_104_2067
*1175 FILLER_0_104_2131
*1176 FILLER_0_104_2137
*1177 FILLER_0_104_22
*1178 FILLER_0_104_2201
*1179 FILLER_0_104_2207
*1180 FILLER_0_104_2271
*1181 FILLER_0_104_2277
*1182 FILLER_0_104_2341
*1183 FILLER_0_104_2347
*1184 FILLER_0_104_241
*1185 FILLER_0_104_2411
*1186 FILLER_0_104_2417
*1187 FILLER_0_104_247
*1188 FILLER_0_104_2481
*1189 FILLER_0_104_2487
*1190 FILLER_0_104_2551
*1191 FILLER_0_104_2557
*1192 FILLER_0_104_2621
*1193 FILLER_0_104_2627
*1194 FILLER_0_104_2691
*1195 FILLER_0_104_2697
*1196 FILLER_0_104_2761
*1197 FILLER_0_104_2767
*1198 FILLER_0_104_2831
*1199 FILLER_0_104_2837
*1200 FILLER_0_104_2901
*1201 FILLER_0_104_2907
*1202 FILLER_0_104_2971
*1203 FILLER_0_104_2977
*1204 FILLER_0_104_30
*1205 FILLER_0_104_3041
*1206 FILLER_0_104_3047
*1207 FILLER_0_104_311
*1208 FILLER_0_104_3111
*1209 FILLER_0_104_3117
*1210 FILLER_0_104_317
*1211 FILLER_0_104_3181
*1212 FILLER_0_104_3187
*1213 FILLER_0_104_3251
*1214 FILLER_0_104_3257
*1215 FILLER_0_104_3321
*1216 FILLER_0_104_3327
*1217 FILLER_0_104_3391
*1218 FILLER_0_104_3397
*1219 FILLER_0_104_34
*1220 FILLER_0_104_3461
*1221 FILLER_0_104_3467
*1222 FILLER_0_104_3531
*1223 FILLER_0_104_3537
*1224 FILLER_0_104_3601
*1225 FILLER_0_104_3607
*1226 FILLER_0_104_3671
*1227 FILLER_0_104_3677
*1228 FILLER_0_104_37
*1229 FILLER_0_104_3741
*1230 FILLER_0_104_3747
*1231 FILLER_0_104_381
*1232 FILLER_0_104_3811
*1233 FILLER_0_104_3817
*1234 FILLER_0_104_387
*1235 FILLER_0_104_3881
*1236 FILLER_0_104_3887
*1237 FILLER_0_104_3951
*1238 FILLER_0_104_3957
*1239 FILLER_0_104_4021
*1240 FILLER_0_104_4027
*1241 FILLER_0_104_4091
*1242 FILLER_0_104_4097
*1243 FILLER_0_104_4161
*1244 FILLER_0_104_4167
*1245 FILLER_0_104_4231
*1246 FILLER_0_104_4237
*1247 FILLER_0_104_4301
*1248 FILLER_0_104_4307
*1249 FILLER_0_104_4371
*1250 FILLER_0_104_4377
*1251 FILLER_0_104_4441
*1252 FILLER_0_104_4447
*1253 FILLER_0_104_451
*1254 FILLER_0_104_4511
*1255 FILLER_0_104_4517
*1256 FILLER_0_104_457
*1257 FILLER_0_104_4581
*1258 FILLER_0_104_4587
*1259 FILLER_0_104_4651
*1260 FILLER_0_104_4657
*1261 FILLER_0_104_4721
*1262 FILLER_0_104_4727
*1263 FILLER_0_104_4791
*1264 FILLER_0_104_4797
*1265 FILLER_0_104_4861
*1266 FILLER_0_104_4867
*1267 FILLER_0_104_4931
*1268 FILLER_0_104_4937
*1269 FILLER_0_104_4969
*1270 FILLER_0_104_4973
*1271 FILLER_0_104_521
*1272 FILLER_0_104_527
*1273 FILLER_0_104_591
*1274 FILLER_0_104_597
*1275 FILLER_0_104_6
*1276 FILLER_0_104_661
*1277 FILLER_0_104_667
*1278 FILLER_0_104_731
*1279 FILLER_0_104_737
*1280 FILLER_0_104_801
*1281 FILLER_0_104_807
*1282 FILLER_0_104_871
*1283 FILLER_0_104_877
*1284 FILLER_0_104_941
*1285 FILLER_0_104_947
*1286 FILLER_0_105_1046
*1287 FILLER_0_105_1052
*1288 FILLER_0_105_1116
*1289 FILLER_0_105_1122
*1290 FILLER_0_105_1186
*1291 FILLER_0_105_1192
*1292 FILLER_0_105_1256
*1293 FILLER_0_105_1262
*1294 FILLER_0_105_1326
*1295 FILLER_0_105_1332
*1296 FILLER_0_105_136
*1297 FILLER_0_105_1396
*1298 FILLER_0_105_1402
*1299 FILLER_0_105_142
*1300 FILLER_0_105_1466
*1301 FILLER_0_105_1472
*1302 FILLER_0_105_1536
*1303 FILLER_0_105_1542
*1304 FILLER_0_105_1606
*1305 FILLER_0_105_1612
*1306 FILLER_0_105_1676
*1307 FILLER_0_105_1682
*1308 FILLER_0_105_1746
*1309 FILLER_0_105_1752
*1310 FILLER_0_105_1816
*1311 FILLER_0_105_1822
*1312 FILLER_0_105_1886
*1313 FILLER_0_105_1892
*1314 FILLER_0_105_1956
*1315 FILLER_0_105_1962
*1316 FILLER_0_105_2
*1317 FILLER_0_105_2026
*1318 FILLER_0_105_2032
*1319 FILLER_0_105_206
*1320 FILLER_0_105_2096
*1321 FILLER_0_105_2102
*1322 FILLER_0_105_212
*1323 FILLER_0_105_2166
*1324 FILLER_0_105_2172
*1325 FILLER_0_105_2236
*1326 FILLER_0_105_2242
*1327 FILLER_0_105_2306
*1328 FILLER_0_105_2312
*1329 FILLER_0_105_2376
*1330 FILLER_0_105_2382
*1331 FILLER_0_105_2446
*1332 FILLER_0_105_2452
*1333 FILLER_0_105_2516
*1334 FILLER_0_105_2522
*1335 FILLER_0_105_2586
*1336 FILLER_0_105_2592
*1337 FILLER_0_105_2656
*1338 FILLER_0_105_2662
*1339 FILLER_0_105_2726
*1340 FILLER_0_105_2732
*1341 FILLER_0_105_276
*1342 FILLER_0_105_2796
*1343 FILLER_0_105_2802
*1344 FILLER_0_105_282
*1345 FILLER_0_105_2866
*1346 FILLER_0_105_2872
*1347 FILLER_0_105_2936
*1348 FILLER_0_105_2942
*1349 FILLER_0_105_3006
*1350 FILLER_0_105_3012
*1351 FILLER_0_105_3076
*1352 FILLER_0_105_3082
*1353 FILLER_0_105_3146
*1354 FILLER_0_105_3152
*1355 FILLER_0_105_3216
*1356 FILLER_0_105_3222
*1357 FILLER_0_105_3286
*1358 FILLER_0_105_3292
*1359 FILLER_0_105_3356
*1360 FILLER_0_105_3362
*1361 FILLER_0_105_3426
*1362 FILLER_0_105_3432
*1363 FILLER_0_105_346
*1364 FILLER_0_105_3496
*1365 FILLER_0_105_3502
*1366 FILLER_0_105_352
*1367 FILLER_0_105_3566
*1368 FILLER_0_105_3572
*1369 FILLER_0_105_3636
*1370 FILLER_0_105_3642
*1371 FILLER_0_105_3706
*1372 FILLER_0_105_3712
*1373 FILLER_0_105_3776
*1374 FILLER_0_105_3782
*1375 FILLER_0_105_3846
*1376 FILLER_0_105_3852
*1377 FILLER_0_105_3916
*1378 FILLER_0_105_3922
*1379 FILLER_0_105_3986
*1380 FILLER_0_105_3992
*1381 FILLER_0_105_4056
*1382 FILLER_0_105_4062
*1383 FILLER_0_105_4126
*1384 FILLER_0_105_4132
*1385 FILLER_0_105_416
*1386 FILLER_0_105_4196
*1387 FILLER_0_105_4202
*1388 FILLER_0_105_422
*1389 FILLER_0_105_4266
*1390 FILLER_0_105_4272
*1391 FILLER_0_105_4336
*1392 FILLER_0_105_4342
*1393 FILLER_0_105_4406
*1394 FILLER_0_105_4412
*1395 FILLER_0_105_4476