*SPEF "ieee 1481-1999"
*DESIGN "user_project_wrapper"
*DATE "11:11:11 Fri 11 11, 1111"
*VENDOR "OpenRCX"
*PROGRAM "Parallel Extraction"
*VERSION "1.0"
*DESIGN_FLOW "NAME_SCOPE LOCAL" "PIN_CAP NONE"
*DIVIDER /
*DELIMITER :
*BUS_DELIMITER []
*T_UNIT 1 NS
*C_UNIT 1 PF
*R_UNIT 1 OHM
*L_UNIT 1 HENRY

*NAME_MAP
*1 io_in[0]
*2 io_in[10]
*3 io_in[11]
*4 io_in[12]
*5 io_in[13]
*6 io_in[14]
*7 io_in[15]
*8 io_in[16]
*9 io_in[17]
*10 io_in[18]
*11 io_in[19]
*12 io_in[1]
*13 io_in[20]
*14 io_in[21]
*15 io_in[22]
*16 io_in[23]
*17 io_in[24]
*18 io_in[25]
*19 io_in[26]
*20 io_in[27]
*21 io_in[28]
*22 io_in[29]
*23 io_in[2]
*24 io_in[30]
*25 io_in[31]
*26 io_in[32]
*27 io_in[33]
*28 io_in[34]
*29 io_in[35]
*30 io_in[36]
*31 io_in[37]
*32 io_in[3]
*33 io_in[4]
*34 io_in[5]
*35 io_in[6]
*36 io_in[7]
*37 io_in[8]
*38 io_in[9]
*39 io_oeb[0]
*40 io_oeb[10]
*41 io_oeb[11]
*42 io_oeb[12]
*43 io_oeb[13]
*44 io_oeb[14]
*45 io_oeb[15]
*46 io_oeb[16]
*47 io_oeb[17]
*48 io_oeb[18]
*49 io_oeb[19]
*50 io_oeb[1]
*51 io_oeb[20]
*52 io_oeb[21]
*53 io_oeb[22]
*54 io_oeb[23]
*55 io_oeb[24]
*56 io_oeb[25]
*57 io_oeb[26]
*58 io_oeb[27]
*59 io_oeb[28]
*60 io_oeb[29]
*61 io_oeb[2]
*62 io_oeb[30]
*63 io_oeb[31]
*64 io_oeb[32]
*65 io_oeb[33]
*66 io_oeb[34]
*67 io_oeb[35]
*68 io_oeb[36]
*69 io_oeb[37]
*70 io_oeb[3]
*71 io_oeb[4]
*72 io_oeb[5]
*73 io_oeb[6]
*74 io_oeb[7]
*75 io_oeb[8]
*76 io_oeb[9]
*77 io_out[0]
*78 io_out[10]
*79 io_out[11]
*80 io_out[12]
*81 io_out[13]
*82 io_out[14]
*83 io_out[15]
*84 io_out[16]
*85 io_out[17]
*86 io_out[18]
*87 io_out[19]
*88 io_out[1]
*89 io_out[20]
*90 io_out[21]
*91 io_out[22]
*92 io_out[23]
*93 io_out[24]
*94 io_out[25]
*95 io_out[26]
*96 io_out[27]
*97 io_out[28]
*98 io_out[29]
*99 io_out[2]
*100 io_out[30]
*101 io_out[31]
*102 io_out[32]
*103 io_out[33]
*104 io_out[34]
*105 io_out[35]
*106 io_out[36]
*107 io_out[37]
*108 io_out[3]
*109 io_out[4]
*110 io_out[5]
*111 io_out[6]
*112 io_out[7]
*113 io_out[8]
*114 io_out[9]
*115 la_data_in[0]
*116 la_data_in[10]
*117 la_data_in[11]
*118 la_data_in[12]
*119 la_data_in[13]
*120 la_data_in[14]
*121 la_data_in[15]
*122 la_data_in[16]
*123 la_data_in[17]
*124 la_data_in[18]
*125 la_data_in[19]
*126 la_data_in[1]
*127 la_data_in[20]
*128 la_data_in[21]
*129 la_data_in[22]
*130 la_data_in[23]
*131 la_data_in[24]
*132 la_data_in[25]
*133 la_data_in[26]
*134 la_data_in[27]
*135 la_data_in[28]
*136 la_data_in[29]
*137 la_data_in[2]
*138 la_data_in[30]
*139 la_data_in[31]
*140 la_data_in[32]
*141 la_data_in[33]
*142 la_data_in[34]
*143 la_data_in[35]
*144 la_data_in[36]
*145 la_data_in[37]
*146 la_data_in[38]
*147 la_data_in[39]
*148 la_data_in[3]
*149 la_data_in[40]
*150 la_data_in[41]
*151 la_data_in[42]
*152 la_data_in[43]
*153 la_data_in[44]
*154 la_data_in[45]
*155 la_data_in[46]
*156 la_data_in[47]
*157 la_data_in[48]
*158 la_data_in[49]
*159 la_data_in[4]
*160 la_data_in[50]
*161 la_data_in[51]
*162 la_data_in[52]
*163 la_data_in[53]
*164 la_data_in[54]
*165 la_data_in[55]
*166 la_data_in[56]
*167 la_data_in[57]
*168 la_data_in[58]
*169 la_data_in[59]
*170 la_data_in[5]
*171 la_data_in[60]
*172 la_data_in[61]
*173 la_data_in[62]
*174 la_data_in[63]
*175 la_data_in[6]
*176 la_data_in[7]
*177 la_data_in[8]
*178 la_data_in[9]
*179 la_data_out[0]
*180 la_data_out[10]
*181 la_data_out[11]
*182 la_data_out[12]
*183 la_data_out[13]
*184 la_data_out[14]
*185 la_data_out[15]
*186 la_data_out[16]
*187 la_data_out[17]
*188 la_data_out[18]
*189 la_data_out[19]
*190 la_data_out[1]
*191 la_data_out[20]
*192 la_data_out[21]
*193 la_data_out[22]
*194 la_data_out[23]
*195 la_data_out[24]
*196 la_data_out[25]
*197 la_data_out[26]
*198 la_data_out[27]
*199 la_data_out[28]
*200 la_data_out[29]
*201 la_data_out[2]
*202 la_data_out[30]
*203 la_data_out[31]
*204 la_data_out[32]
*205 la_data_out[33]
*206 la_data_out[34]
*207 la_data_out[35]
*208 la_data_out[36]
*209 la_data_out[37]
*210 la_data_out[38]
*211 la_data_out[39]
*212 la_data_out[3]
*213 la_data_out[40]
*214 la_data_out[41]
*215 la_data_out[42]
*216 la_data_out[43]
*217 la_data_out[44]
*218 la_data_out[45]
*219 la_data_out[46]
*220 la_data_out[47]
*221 la_data_out[48]
*222 la_data_out[49]
*223 la_data_out[4]
*224 la_data_out[50]
*225 la_data_out[51]
*226 la_data_out[52]
*227 la_data_out[53]
*228 la_data_out[54]
*229 la_data_out[55]
*230 la_data_out[56]
*231 la_data_out[57]
*232 la_data_out[58]
*233 la_data_out[59]
*234 la_data_out[5]
*235 la_data_out[60]
*236 la_data_out[61]
*237 la_data_out[62]
*238 la_data_out[63]
*239 la_data_out[6]
*240 la_data_out[7]
*241 la_data_out[8]
*242 la_data_out[9]
*243 la_oenb[0]
*244 la_oenb[10]
*245 la_oenb[11]
*246 la_oenb[12]
*247 la_oenb[13]
*248 la_oenb[14]
*249 la_oenb[15]
*250 la_oenb[16]
*251 la_oenb[17]
*252 la_oenb[18]
*253 la_oenb[19]
*254 la_oenb[1]
*255 la_oenb[20]
*256 la_oenb[21]
*257 la_oenb[22]
*258 la_oenb[23]
*259 la_oenb[24]
*260 la_oenb[25]
*261 la_oenb[26]
*262 la_oenb[27]
*263 la_oenb[28]
*264 la_oenb[29]
*265 la_oenb[2]
*266 la_oenb[30]
*267 la_oenb[31]
*268 la_oenb[32]
*269 la_oenb[33]
*270 la_oenb[34]
*271 la_oenb[35]
*272 la_oenb[36]
*273 la_oenb[37]
*274 la_oenb[38]
*275 la_oenb[39]
*276 la_oenb[3]
*277 la_oenb[40]
*278 la_oenb[41]
*279 la_oenb[42]
*280 la_oenb[43]
*281 la_oenb[44]
*282 la_oenb[45]
*283 la_oenb[46]
*284 la_oenb[47]
*285 la_oenb[48]
*286 la_oenb[49]
*287 la_oenb[4]
*288 la_oenb[50]
*289 la_oenb[51]
*290 la_oenb[52]
*291 la_oenb[53]
*292 la_oenb[54]
*293 la_oenb[55]
*294 la_oenb[56]
*295 la_oenb[57]
*296 la_oenb[58]
*297 la_oenb[59]
*298 la_oenb[5]
*299 la_oenb[60]
*300 la_oenb[61]
*301 la_oenb[62]
*302 la_oenb[63]
*303 la_oenb[6]
*304 la_oenb[7]
*305 la_oenb[8]
*306 la_oenb[9]
*307 user_clock2
*308 user_irq[0]
*309 user_irq[1]
*310 user_irq[2]
*313 wb_clk_i
*314 wb_rst_i
*315 wbs_ack_o
*316 wbs_adr_i[0]
*317 wbs_adr_i[10]
*318 wbs_adr_i[11]
*319 wbs_adr_i[12]
*320 wbs_adr_i[13]
*321 wbs_adr_i[14]
*322 wbs_adr_i[15]
*323 wbs_adr_i[16]
*324 wbs_adr_i[17]
*325 wbs_adr_i[18]
*326 wbs_adr_i[19]
*327 wbs_adr_i[1]
*328 wbs_adr_i[20]
*329 wbs_adr_i[21]
*330 wbs_adr_i[22]
*331 wbs_adr_i[23]
*332 wbs_adr_i[24]
*333 wbs_adr_i[25]
*334 wbs_adr_i[26]
*335 wbs_adr_i[27]
*336 wbs_adr_i[28]
*337 wbs_adr_i[29]
*338 wbs_adr_i[2]
*339 wbs_adr_i[30]
*340 wbs_adr_i[31]
*341 wbs_adr_i[3]
*342 wbs_adr_i[4]
*343 wbs_adr_i[5]
*344 wbs_adr_i[6]
*345 wbs_adr_i[7]
*346 wbs_adr_i[8]
*347 wbs_adr_i[9]
*348 wbs_cyc_i
*349 wbs_dat_i[0]
*350 wbs_dat_i[10]
*351 wbs_dat_i[11]
*352 wbs_dat_i[12]
*353 wbs_dat_i[13]
*354 wbs_dat_i[14]
*355 wbs_dat_i[15]
*356 wbs_dat_i[16]
*357 wbs_dat_i[17]
*358 wbs_dat_i[18]
*359 wbs_dat_i[19]
*360 wbs_dat_i[1]
*361 wbs_dat_i[20]
*362 wbs_dat_i[21]
*363 wbs_dat_i[22]
*364 wbs_dat_i[23]
*365 wbs_dat_i[24]
*366 wbs_dat_i[25]
*367 wbs_dat_i[26]
*368 wbs_dat_i[27]
*369 wbs_dat_i[28]
*370 wbs_dat_i[29]
*371 wbs_dat_i[2]
*372 wbs_dat_i[30]
*373 wbs_dat_i[31]
*374 wbs_dat_i[3]
*375 wbs_dat_i[4]
*376 wbs_dat_i[5]
*377 wbs_dat_i[6]
*378 wbs_dat_i[7]
*379 wbs_dat_i[8]
*380 wbs_dat_i[9]
*381 wbs_dat_o[0]
*382 wbs_dat_o[10]
*383 wbs_dat_o[11]
*384 wbs_dat_o[12]
*385 wbs_dat_o[13]
*386 wbs_dat_o[14]
*387 wbs_dat_o[15]
*388 wbs_dat_o[16]
*389 wbs_dat_o[17]
*390 wbs_dat_o[18]
*391 wbs_dat_o[19]
*392 wbs_dat_o[1]
*393 wbs_dat_o[20]
*394 wbs_dat_o[21]
*395 wbs_dat_o[22]
*396 wbs_dat_o[23]
*397 wbs_dat_o[24]
*398 wbs_dat_o[25]
*399 wbs_dat_o[26]
*400 wbs_dat_o[27]
*401 wbs_dat_o[28]
*402 wbs_dat_o[29]
*403 wbs_dat_o[2]
*404 wbs_dat_o[30]
*405 wbs_dat_o[31]
*406 wbs_dat_o[3]
*407 wbs_dat_o[4]
*408 wbs_dat_o[5]
*409 wbs_dat_o[6]
*410 wbs_dat_o[7]
*411 wbs_dat_o[8]
*412 wbs_dat_o[9]
*413 wbs_sel_i[0]
*414 wbs_sel_i[1]
*415 wbs_sel_i[2]
*416 wbs_sel_i[3]
*417 wbs_stb_i
*418 wbs_we_i
*419 mprj

*PORTS
io_in[0] I
io_in[10] I
io_in[11] I
io_in[12] I
io_in[13] I
io_in[14] I
io_in[15] I
io_in[16] I
io_in[17] I
io_in[18] I
io_in[19] I
io_in[1] I
io_in[20] I
io_in[21] I
io_in[22] I
io_in[23] I
io_in[24] I
io_in[25] I
io_in[26] I
io_in[27] I
io_in[28] I
io_in[29] I
io_in[2] I
io_in[30] I
io_in[31] I
io_in[32] I
io_in[33] I
io_in[34] I
io_in[35] I
io_in[36] I
io_in[37] I
io_in[3] I
io_in[4] I
io_in[5] I
io_in[6] I
io_in[7] I
io_in[8] I
io_in[9] I
io_oeb[0] O
io_oeb[10] O
io_oeb[11] O
io_oeb[12] O
io_oeb[13] O
io_oeb[14] O
io_oeb[15] O
io_oeb[16] O
io_oeb[17] O
io_oeb[18] O
io_oeb[19] O
io_oeb[1] O
io_oeb[20] O
io_oeb[21] O
io_oeb[22] O
io_oeb[23] O
io_oeb[24] O
io_oeb[25] O
io_oeb[26] O
io_oeb[27] O
io_oeb[28] O
io_oeb[29] O
io_oeb[2] O
io_oeb[30] O
io_oeb[31] O
io_oeb[32] O
io_oeb[33] O
io_oeb[34] O
io_oeb[35] O
io_oeb[36] O
io_oeb[37] O
io_oeb[3] O
io_oeb[4] O
io_oeb[5] O
io_oeb[6] O
io_oeb[7] O
io_oeb[8] O
io_oeb[9] O
io_out[0] O
io_out[10] O
io_out[11] O
io_out[12] O
io_out[13] O
io_out[14] O
io_out[15] O
io_out[16] O
io_out[17] O
io_out[18] O
io_out[19] O
io_out[1] O
io_out[20] O
io_out[21] O
io_out[22] O
io_out[23] O
io_out[24] O
io_out[25] O
io_out[26] O
io_out[27] O
io_out[28] O
io_out[29] O
io_out[2] O
io_out[30] O
io_out[31] O
io_out[32] O
io_out[33] O
io_out[34] O
io_out[35] O
io_out[36] O
io_out[37] O
io_out[3] O
io_out[4] O
io_out[5] O
io_out[6] O
io_out[7] O
io_out[8] O
io_out[9] O
la_data_in[0] I
la_data_in[10] I
la_data_in[11] I
la_data_in[12] I
la_data_in[13] I
la_data_in[14] I
la_data_in[15] I
la_data_in[16] I
la_data_in[17] I
la_data_in[18] I
la_data_in[19] I
la_data_in[1] I
la_data_in[20] I
la_data_in[21] I
la_data_in[22] I
la_data_in[23] I
la_data_in[24] I
la_data_in[25] I
la_data_in[26] I
la_data_in[27] I
la_data_in[28] I
la_data_in[29] I
la_data_in[2] I
la_data_in[30] I
la_data_in[31] I
la_data_in[32] I
la_data_in[33] I
la_data_in[34] I
la_data_in[35] I
la_data_in[36] I
la_data_in[37] I
la_data_in[38] I
la_data_in[39] I
la_data_in[3] I
la_data_in[40] I
la_data_in[41] I
la_data_in[42] I
la_data_in[43] I
la_data_in[44] I
la_data_in[45] I
la_data_in[46] I
la_data_in[47] I
la_data_in[48] I
la_data_in[49] I
la_data_in[4] I
la_data_in[50] I
la_data_in[51] I
la_data_in[52] I
la_data_in[53] I
la_data_in[54] I
la_data_in[55] I
la_data_in[56] I
la_data_in[57] I
la_data_in[58] I
la_data_in[59] I
la_data_in[5] I
la_data_in[60] I
la_data_in[61] I
la_data_in[62] I
la_data_in[63] I
la_data_in[6] I
la_data_in[7] I
la_data_in[8] I
la_data_in[9] I
la_data_out[0] O
la_data_out[10] O
la_data_out[11] O
la_data_out[12] O
la_data_out[13] O
la_data_out[14] O
la_data_out[15] O
la_data_out[16] O
la_data_out[17] O
la_data_out[18] O
la_data_out[19] O
la_data_out[1] O
la_data_out[20] O
la_data_out[21] O
la_data_out[22] O
la_data_out[23] O
la_data_out[24] O
la_data_out[25] O
la_data_out[26] O
la_data_out[27] O
la_data_out[28] O
la_data_out[29] O
la_data_out[2] O
la_data_out[30] O
la_data_out[31] O
la_data_out[32] O
la_data_out[33] O
la_data_out[34] O
la_data_out[35] O
la_data_out[36] O
la_data_out[37] O
la_data_out[38] O
la_data_out[39] O
la_data_out[3] O
la_data_out[40] O
la_data_out[41] O
la_data_out[42] O
la_data_out[43] O
la_data_out[44] O
la_data_out[45] O
la_data_out[46] O
la_data_out[47] O
la_data_out[48] O
la_data_out[49] O
la_data_out[4] O
la_data_out[50] O
la_data_out[51] O
la_data_out[52] O
la_data_out[53] O
la_data_out[54] O
la_data_out[55] O
la_data_out[56] O
la_data_out[57] O
la_data_out[58] O
la_data_out[59] O
la_data_out[5] O
la_data_out[60] O
la_data_out[61] O
la_data_out[62] O
la_data_out[63] O
la_data_out[6] O
la_data_out[7] O
la_data_out[8] O
la_data_out[9] O
la_oenb[0] I
la_oenb[10] I
la_oenb[11] I
la_oenb[12] I
la_oenb[13] I
la_oenb[14] I
la_oenb[15] I
la_oenb[16] I
la_oenb[17] I
la_oenb[18] I
la_oenb[19] I
la_oenb[1] I
la_oenb[20] I
la_oenb[21] I
la_oenb[22] I
la_oenb[23] I
la_oenb[24] I
la_oenb[25] I
la_oenb[26] I
la_oenb[27] I
la_oenb[28] I
la_oenb[29] I
la_oenb[2] I
la_oenb[30] I
la_oenb[31] I
la_oenb[32] I
la_oenb[33] I
la_oenb[34] I
la_oenb[35] I
la_oenb[36] I
la_oenb[37] I
la_oenb[38] I
la_oenb[39] I
la_oenb[3] I
la_oenb[40] I
la_oenb[41] I
la_oenb[42] I
la_oenb[43] I
la_oenb[44] I
la_oenb[45] I
la_oenb[46] I
la_oenb[47] I
la_oenb[48] I
la_oenb[49] I
la_oenb[4] I
la_oenb[50] I
la_oenb[51] I
la_oenb[52] I
la_oenb[53] I
la_oenb[54] I
la_oenb[55] I
la_oenb[56] I
la_oenb[57] I
la_oenb[58] I
la_oenb[59] I
la_oenb[5] I
la_oenb[60] I
la_oenb[61] I
la_oenb[62] I
la_oenb[63] I
la_oenb[6] I
la_oenb[7] I
la_oenb[8] I
la_oenb[9] I
user_clock2 I
user_irq[0] O
user_irq[1] O
user_irq[2] O
wb_clk_i I
wb_rst_i I
wbs_ack_o O
wbs_adr_i[0] I
wbs_adr_i[10] I
wbs_adr_i[11] I
wbs_adr_i[12] I
wbs_adr_i[13] I
wbs_adr_i[14] I
wbs_adr_i[15] I
wbs_adr_i[16] I
wbs_adr_i[17] I
wbs_adr_i[18] I
wbs_adr_i[19] I
wbs_adr_i[1] I
wbs_adr_i[20] I
wbs_adr_i[21] I
wbs_adr_i[22] I
wbs_adr_i[23] I
wbs_adr_i[24] I
wbs_adr_i[25] I
wbs_adr_i[26] I
wbs_adr_i[27] I
wbs_adr_i[28] I
wbs_adr_i[29] I
wbs_adr_i[2] I
wbs_adr_i[30] I
wbs_adr_i[31] I
wbs_adr_i[3] I
wbs_adr_i[4] I
wbs_adr_i[5] I
wbs_adr_i[6] I
wbs_adr_i[7] I
wbs_adr_i[8] I
wbs_adr_i[9] I
wbs_cyc_i I
wbs_dat_i[0] I
wbs_dat_i[10] I
wbs_dat_i[11] I
wbs_dat_i[12] I
wbs_dat_i[13] I
wbs_dat_i[14] I
wbs_dat_i[15] I
wbs_dat_i[16] I
wbs_dat_i[17] I
wbs_dat_i[18] I
wbs_dat_i[19] I
wbs_dat_i[1] I
wbs_dat_i[20] I
wbs_dat_i[21] I
wbs_dat_i[22] I
wbs_dat_i[23] I
wbs_dat_i[24] I
wbs_dat_i[25] I
wbs_dat_i[26] I
wbs_dat_i[27] I
wbs_dat_i[28] I
wbs_dat_i[29] I
wbs_dat_i[2] I
wbs_dat_i[30] I
wbs_dat_i[31] I
wbs_dat_i[3] I
wbs_dat_i[4] I
wbs_dat_i[5] I
wbs_dat_i[6] I
wbs_dat_i[7] I
wbs_dat_i[8] I
wbs_dat_i[9] I
wbs_dat_o[0] O
wbs_dat_o[10] O
wbs_dat_o[11] O
wbs_dat_o[12] O
wbs_dat_o[13] O
wbs_dat_o[14] O
wbs_dat_o[15] O
wbs_dat_o[16] O
wbs_dat_o[17] O
wbs_dat_o[18] O
wbs_dat_o[19] O
wbs_dat_o[1] O
wbs_dat_o[20] O
wbs_dat_o[21] O
wbs_dat_o[22] O
wbs_dat_o[23] O
wbs_dat_o[24] O
wbs_dat_o[25] O
wbs_dat_o[26] O
wbs_dat_o[27] O
wbs_dat_o[28] O
wbs_dat_o[29] O
wbs_dat_o[2] O
wbs_dat_o[30] O
wbs_dat_o[31] O
wbs_dat_o[3] O
wbs_dat_o[4] O
wbs_dat_o[5] O
wbs_dat_o[6] O
wbs_dat_o[7] O
wbs_dat_o[8] O
wbs_dat_o[9] O
wbs_sel_i[0] I
wbs_sel_i[1] I
wbs_sel_i[2] I
wbs_sel_i[3] I
wbs_stb_i I
wbs_we_i I

*D_NET *2 0.0845902
*CONN
*P io_in[10] I
*I *419:io_in[5] I *D ADC_LogiCompilation
*CAP
1 io_in[10] 0.00429623
2 *419:io_in[5] 0.000721115
3 *2:9 0.0292411
4 *2:7 0.0328162
5 *2:9 *69:9 0.00556694
6 *2:9 *72:11 0.0119486
*RES
1 io_in[10] *2:7 37.125 
2 *2:7 *2:9 265.05 
3 *2:9 *419:io_in[5] 10.125 
*END

*D_NET *3 0.118764
*CONN
*P io_in[11] I
*I *419:io_in[6] I *D ADC_LogiCompilation
*CAP
1 io_in[11] 0.000961214
2 *419:io_in[6] 0.00341016
3 *3:9 0.0197609
4 *3:7 0.017312
5 *419:io_in[6] *36:11 0.00186507
6 *3:9 *5:9 0.0241056
7 *3:9 *38:9 0.0513494
*RES
1 io_in[11] *3:7 11.565 
2 *3:7 *3:9 254.61 
3 *3:9 *419:io_in[6] 36.225 
*END

*D_NET *4 0.0735692
*CONN
*P io_in[12] I
*I *419:io_in[7] I *D ADC_LogiCompilation
*CAP
1 io_in[12] 0.00390483
2 *419:io_in[7] 0.00104481
3 *4:9 0.0328798
4 *4:7 0.0357398
*RES
1 io_in[12] *4:7 34.425 
2 *4:7 *4:9 259.65 
3 *4:9 *419:io_in[7] 12.825 
*END

*D_NET *5 0.342672
*CONN
*P io_in[13] I
*I *419:io_in[8] I *D ADC_LogiCompilation
*CAP
1 io_in[13] 0.00100437
2 *419:io_in[8] 0.000267358
3 *5:13 0.103036
4 *5:11 0.102769
5 *5:9 0.00907295
6 *5:7 0.0100773
7 *5:9 *6:9 0.028196
8 *5:9 *38:9 0.0106128
9 *5:9 *40:19 0.0535311
10 *5:13 *54:12 0
11 *5:13 *54:14 0
12 *3:9 *5:9 0.0241056
*RES
1 io_in[13] *5:7 11.925 
2 *5:7 *5:9 281.125 
3 *5:9 *5:11 4.5 
4 *5:11 *5:13 394.555 
5 *5:13 *419:io_in[8] 11.0604 
*END

*D_NET *6 0.488155
*CONN
*P io_in[14] I
*I *419:io_in[9] I *D ADC_LogiCompilation
*CAP
1 io_in[14] 0.00126197
2 *419:io_in[9] 2.47549e-05
3 *6:13 0.10267
4 *6:11 0.102645
5 *6:9 0.00591227
6 *6:7 0.00717424
7 *6:9 *40:19 0.0938223
8 *6:9 *41:17 0.119509
9 *6:9 *43:17 0.0241727
10 *6:9 *44:14 0.00276652
11 *5:9 *6:9 0.028196
*RES
1 io_in[14] *6:7 12.285 
2 *6:7 *6:9 444.648 
3 *6:9 *6:11 4.5 
4 *6:11 *6:13 394.249 
5 *6:13 *419:io_in[9] 9.13179 
*END

*D_NET *7 0.380375
*CONN
*P io_in[15] I
*I *419:io_in[10] I *D ADC_LogiCompilation
*CAP
1 io_in[15] 0.00113241
2 *419:io_in[10] 0.000112239
3 *7:15 0.117033
4 *7:13 0.116921
5 *7:11 0.0720221
6 *7:9 0.0731546
7 *7:11 *37:9 0
*RES
1 io_in[15] *7:9 17.865 
2 *7:9 *7:11 586.848 
3 *7:11 *7:13 4.5 
4 *7:13 *7:15 390.049 
5 *7:15 *419:io_in[10] 9.85179 
*END

*D_NET *8 0.343907
*CONN
*P io_in[16] I
*I *419:io_in[11] I *D ADC_LogiCompilation
*CAP
1 io_in[16] 0.00131214
2 *419:io_in[11] 0.000228977
3 *8:17 0.0895466
4 *8:15 0.0893176
5 *8:13 0.0809919
6 *8:11 0.082304
7 *8:11 *86:13 0.000205584
*RES
1 io_in[16] *8:11 19.575 
2 *8:11 *8:13 659.748 
3 *8:13 *8:15 4.5 
4 *8:15 *8:17 344.231 
5 *8:17 *419:io_in[11] 10.7068 
*END

*D_NET *9 0.338536
*CONN
*P io_in[17] I
*I *419:io_in[12] I *D ADC_LogiCompilation
*CAP
1 io_in[17] 0.00123588
2 *419:io_in[12] 0.000256976
3 *9:17 0.0779886
4 *9:15 0.0777316
5 *9:13 0.0900113
6 *9:11 0.0912472
7 *9:11 *86:13 6.40635e-05
8 *9:17 *66:13 0
*RES
1 io_in[17] *9:11 18.495 
2 *9:11 *9:13 732.648 
3 *9:13 *9:15 4.5 
4 *9:15 *9:17 299.787 
5 *9:17 *419:io_in[12] 10.9768 
*END

*D_NET *34 0.0878371
*CONN
*P io_in[5] I
*I *419:io_in[0] I *D ADC_LogiCompilation
*CAP
1 io_in[5] 0.00393869
2 *419:io_in[0] 0.00101074
3 *34:9 0.0398263
4 *34:7 0.0427543
5 *419:io_in[0] *69:13 0.000307098
*RES
1 io_in[5] *34:7 34.425 
2 *34:7 *34:9 315.45 
3 *34:9 *419:io_in[0] 12.825 
*END

*D_NET *35 0.15484
*CONN
*P io_in[6] I
*I *419:io_in[1] I *D ADC_LogiCompilation
*CAP
1 io_in[6] 0.00108137
2 *419:io_in[1] 0.00385136
3 *35:9 0.0181708
4 *35:7 0.0154008
5 *35:9 io_oeb[3] 0.00817687
6 *35:9 *38:9 0.00357618
7 *35:9 *40:19 0.0227442
8 *35:9 *41:17 0.0520798
9 *35:9 *43:17 0.0230831
10 *35:9 *44:14 0.00667547
*RES
1 io_in[6] *35:7 12.285 
2 *35:7 *35:9 305.37 
3 *35:9 *419:io_in[1] 34.965 
*END

*D_NET *36 0.0831085
*CONN
*P io_in[7] I
*I *419:io_in[2] I *D ADC_LogiCompilation
*CAP
1 io_in[7] 0.00229861
2 *419:io_in[2] 0.00206664
3 *36:13 0.0383231
4 *36:11 0.0385551
5 *419:io_in[6] *36:11 0.00186507
*RES
1 io_in[7] *36:11 26.685 
2 *36:11 *36:13 295.11 
3 *36:13 *419:io_in[2] 20.925 
*END

*D_NET *37 0.080511
*CONN
*P io_in[8] I
*I *419:io_in[3] I *D ADC_LogiCompilation
*CAP
1 io_in[8] 0.0026778
2 *419:io_in[3] 0.00240724
3 *37:9 0.0375777
4 *37:7 0.0378483
5 *7:11 *37:9 0
*RES
1 io_in[8] *37:7 23.625 
2 *37:7 *37:9 285.21 
3 *37:9 *419:io_in[3] 23.625 
*END

*D_NET *38 0.138984
*CONN
*P io_in[9] I
*I *419:io_in[4] I *D ADC_LogiCompilation
*CAP
1 io_in[9] 0.00119065
2 *419:io_in[4] 0.00365554
3 *38:9 0.0141405
4 *38:7 0.0116756
5 *419:io_in[4] io_oeb[4] 0.000808382
6 *38:9 *40:19 0.0419751
7 *3:9 *38:9 0.0513494
8 *5:9 *38:9 0.0106128
9 *35:9 *38:9 0.00357618
*RES
1 io_in[9] *38:7 11.745 
2 *38:7 *38:9 275.13 
3 *38:9 *419:io_in[4] 35.505 
*END

*D_NET *39 0.0123379
*CONN
*P io_oeb[0] O
*I *419:io_oeb[0] O *D ADC_LogiCompilation
*CAP
1 io_oeb[0] 0.00202918
2 *419:io_oeb[0] 0.00413976
3 *39:11 0.00616894
*RES
1 *419:io_oeb[0] *39:11 42.255 
2 *39:11 io_oeb[0] 14.985 
*END

*D_NET *40 0.435505
*CONN
*P io_oeb[10] O
*I *419:io_oeb[10] O *D ADC_LogiCompilation
*CAP
1 io_oeb[10] 0.00105979
2 *419:io_oeb[10] 0.000185818
3 *40:19 0.00272758
4 *40:17 0.00166779
5 *40:15 0.10262
6 *40:13 0.102806
7 *40:19 *41:17 0.0123663
8 *5:9 *40:19 0.0535311
9 *6:9 *40:19 0.0938223
10 *35:9 *40:19 0.0227442
11 *38:9 *40:19 0.0419751
*RES
1 *419:io_oeb[10] *40:13 10.3468 
2 *40:13 *40:15 394.325 
3 *40:15 *40:17 4.5 
4 *40:17 *40:19 353.928 
5 *40:19 io_oeb[10] 12.105 
*END

*D_NET *41 0.594179
*CONN
*P io_oeb[11] O
*I *419:io_oeb[11] O *D ADC_LogiCompilation
*CAP
1 io_oeb[11] 0.00110295
2 *419:io_oeb[11] 0.000213817
3 *41:17 0.00262515
4 *41:15 0.0015222
5 *41:13 0.102756
6 *41:11 0.10297
7 *41:13 *70:7 0.00113703
8 *41:17 *43:17 0.197897
9 *6:9 *41:17 0.119509
10 *35:9 *41:17 0.0520798
11 *40:19 *41:17 0.0123663
*RES
1 *419:io_oeb[11] *41:11 10.6168 
2 *41:11 *41:13 394.402 
3 *41:13 *41:15 4.5 
4 *41:15 *41:17 490.368 
5 *41:17 io_oeb[11] 12.465 
*END

*D_NET *42 0.505456
*CONN
*P io_oeb[12] O
*I *419:io_oeb[12] O *D ADC_LogiCompilation
*CAP
1 io_oeb[12] 0.117739
2 *419:io_oeb[12] 0.000833768
3 *42:11 0.117739
4 *42:9 0.134156
5 *42:7 0.134989
*RES
1 *419:io_oeb[12] *42:7 9.405 
2 *42:7 *42:9 629.01 
3 *42:9 *42:11 4.5 
4 *42:11 io_oeb[12] 942.885 
*END

*D_NET *43 0.756395
*CONN
*P io_oeb[13] O
*I *419:io_oeb[13] O *D ADC_LogiCompilation
*CAP
1 io_oeb[13] 0.0011076
2 *419:io_oeb[13] 0.000319459
3 *43:17 0.00371861
4 *43:15 0.00261101
5 *43:13 0.102364
6 *43:11 0.102683
7 *43:17 *44:14 0.298439
8 *6:9 *43:17 0.0241727
9 *35:9 *43:17 0.0230831
10 *41:17 *43:17 0.197897
*RES
1 *419:io_oeb[13] *43:11 11.5168 
2 *43:11 *43:13 394.325 
3 *43:13 *43:15 4.5 
4 *43:15 *43:17 739.308 
5 *43:17 io_oeb[13] 12.645 
*END

*D_NET *44 0.660655
*CONN
*P io_oeb[14] O
*I *419:io_oeb[14] O *D ADC_LogiCompilation
*CAP
1 io_oeb[14] 0.00111227
2 *419:io_oeb[14] 4.15621e-05
3 *44:14 0.0549411
4 *44:12 0.0538289
5 *44:10 0.110571
6 *44:8 0.110613
7 *44:14 *75:17 0.0216662
8 *6:9 *44:14 0.00276652
9 *35:9 *44:14 0.00667547
10 *43:17 *44:14 0.298439
*RES
1 *419:io_oeb[14] *44:8 9.24107 
2 *44:8 *44:10 394.02 
3 *44:10 *44:12 4.5 
4 *44:12 *44:14 854.521 
5 *44:14 io_oeb[14] 12.825 
*END

*D_NET *45 0.411884
*CONN
*P io_oeb[15] O
*I *419:io_oeb[15] O *D ADC_LogiCompilation
*CAP
1 io_oeb[15] 0.00133756
2 *419:io_oeb[15] 4.82683e-05
3 *45:14 0.112701
4 *45:12 0.111363
5 *45:10 0.0930665
6 *45:8 0.0931147
7 io_oeb[15] *86:13 0.000252758
*RES
1 *419:io_oeb[15] *45:8 9.29893 
2 *45:8 *45:10 359.122 
3 *45:10 *45:12 4.5 
4 *45:12 *45:14 905.641 
5 *45:14 io_oeb[15] 19.935 
*END

*D_NET *46 0.255564
*CONN
*P io_oeb[16] O
*I *419:io_oeb[16] O *D ADC_LogiCompilation
*CAP
1 io_oeb[16] 0.00128672
2 *419:io_oeb[16] 4.82683e-05
3 *46:14 0.110671
4 *46:12 0.109385
5 *46:10 0.0169831
6 *46:8 0.0170314
7 io_oeb[16] *86:13 0.000158409
*RES
1 *419:io_oeb[16] *46:8 9.29893 
2 *46:8 *46:10 65.4273 
3 *46:10 *46:12 4.5 
4 *46:12 *46:14 889.441 
5 *46:14 io_oeb[16] 19.215 
*END

*D_NET *47 0.260946
*CONN
*P io_oeb[17] O
*I *419:io_oeb[17] O *D ADC_LogiCompilation
*CAP
1 io_oeb[17] 0.00149014
2 *419:io_oeb[17] 0.000301576
3 *47:19 0.101451
4 *47:17 0.0999611
5 *47:15 0.0286105
6 *47:13 0.0289121
7 io_oeb[17] *86:13 0.000218944
*RES
1 *419:io_oeb[17] *47:13 11.0637 
2 *47:13 *47:15 110.405 
3 *47:15 *47:17 4.5 
4 *47:17 *47:19 813.648 
5 *47:19 io_oeb[17] 20.295 
*END

*D_NET *48 0.288826
*CONN
*P io_oeb[18] O
*I *419:io_oeb[18] O *D ADC_LogiCompilation
*CAP
1 io_oeb[18] 0.00126703
2 *419:io_oeb[18] 0.000199338
3 *48:19 0.0927869
4 *48:17 0.0915198
5 *48:15 0.0514267
6 *48:13 0.051626
*RES
1 *419:io_oeb[18] *48:13 10.1637 
2 *48:13 *48:15 156.071 
3 *48:15 *48:17 4.5 
4 *48:17 *48:19 740.748 
5 *48:19 io_oeb[18] 18.675 
*END

*D_NET *49 0.271439
*CONN
*P io_oeb[19] O
*I *419:io_oeb[19] O *D ADC_LogiCompilation
*CAP
1 io_oeb[19] 0.00139651
2 *419:io_oeb[19] 0.00408806
3 *49:18 0.0833465
4 *49:16 0.08195
5 *49:14 0.0482849
6 *49:12 0.0523729
*RES
1 *419:io_oeb[19] *49:12 24.3743 
2 *49:12 *49:14 185.662 
3 *49:14 *49:16 4.5 
4 *49:16 *49:18 667.848 
5 *49:18 io_oeb[19] 19.755 
*END

*D_NET *50 0.00979309
*CONN
*P io_oeb[1] O
*I *419:io_oeb[1] O *D ADC_LogiCompilation
*CAP
1 io_oeb[1] 0.00489655
2 *419:io_oeb[1] 0.00489655
*RES
1 *419:io_oeb[1] io_oeb[1] 38.16 
*END

*D_NET *51 0.276704
*CONN
*P io_oeb[20] O
*I *419:io_oeb[20] O *D ADC_LogiCompilation
*CAP
1 io_oeb[20] 0.00230821
2 *419:io_oeb[20] 0.000300138
3 *51:19 0.0738254
4 *51:17 0.0715172
5 *51:15 0.0642264
6 *51:13 0.0645265
*RES
1 *419:io_oeb[20] *51:13 11.1338 
2 *51:13 *51:15 246.638 
3 *51:15 *51:17 4.5 
4 *51:17 *51:19 583.435 
5 *51:19 io_oeb[20] 27.135 
*END

*D_NET *52 0.282032
*CONN
*P io_oeb[21] O
*I *419:io_oeb[21] O *D ADC_LogiCompilation
*CAP
1 io_oeb[21] 0.00133177
2 *419:io_oeb[21] 0.00423519
3 *52:21 0.0650252
4 *52:19 0.0636934
5 *52:17 0.0717554
6 *52:15 0.0759906
*RES
1 *419:io_oeb[21] *52:15 25.3756 
2 *52:15 *52:17 276.153 
3 *52:17 *52:19 4.5 
4 *52:19 *52:21 519.445 
5 *52:21 io_oeb[21] 19.215 
*END

*D_NET *53 0.287195
*CONN
*P io_oeb[22] O
*I *419:io_oeb[22] O *D ADC_LogiCompilation
*CAP
1 io_oeb[22] 0.00146125
2 *419:io_oeb[22] 0.00406057
3 *53:18 0.0561978
4 *53:16 0.0547366
5 *53:14 0.083339
6 *53:12 0.0873995
*RES
1 *419:io_oeb[22] *53:12 24.2779 
2 *53:12 *53:14 320.825 
3 *53:14 *53:16 4.5 
4 *53:16 *53:18 446.545 
5 *53:18 io_oeb[22] 20.295 
*END

*D_NET *54 0.296017
*CONN
*P io_oeb[23] O
*I *419:io_oeb[23] O *D ADC_LogiCompilation
*CAP
1 io_oeb[23] 0.00126703
2 *419:io_oeb[23] 0.00408941
3 *54:18 0.0486826
4 *54:16 0.0474156
5 *54:14 0.0952363
6 *54:12 0.0993257
7 *5:13 *54:12 0
8 *5:13 *54:14 0
*RES
1 *419:io_oeb[23] *54:12 24.3942 
2 *54:12 *54:14 366.644 
3 *54:14 *54:16 4.5 
4 *54:16 *54:18 387.241 
5 *54:18 io_oeb[23] 18.675 
*END

*D_NET *55 0.239706
*CONN
*P io_oeb[24] O
*I *419:io_oeb[24] O *D ADC_LogiCompilation
*CAP
1 io_oeb[24] 0.000876595
2 *419:io_oeb[24] 0.00169151
3 *55:9 0.0123548
4 *55:7 0.0131697
5 *55:9 *56:9 0.0516693
6 *55:9 *60:9 0.0302025
7 *55:9 *94:18 0.129741
*RES
1 *419:io_oeb[24] *55:7 16.245 
2 *55:7 *55:9 414.99 
3 *55:9 io_oeb[24] 11.565 
*END

*D_NET *56 0.290985
*CONN
*P io_oeb[25] O
*I *419:io_oeb[25] O *D ADC_LogiCompilation
*CAP
1 io_oeb[25] 0.000833436
2 *419:io_oeb[25] 0.0017516
3 *56:9 0.00589286
4 *56:7 0.00681103
5 *56:9 *57:9 0.152165
6 *56:9 *60:9 0.0696988
7 *56:9 *93:37 0
8 *56:9 *95:9 0.00216266
9 *55:9 *56:9 0.0516693
*RES
1 *419:io_oeb[25] *56:7 16.605 
2 *56:7 *56:9 444.87 
3 *56:9 io_oeb[25] 11.205 
*END

*D_NET *57 0.347575
*CONN
*P io_oeb[26] O
*I *419:io_oeb[26] O *D ADC_LogiCompilation
*CAP
1 io_oeb[26] 0.000828769
2 *419:io_oeb[26] 0.00179011
3 *57:9 0.00282188
4 *57:7 0.00378321
5 *57:9 *58:9 0.154363
6 *57:9 *60:9 0.00595698
7 *57:9 *64:21 0.0169846
8 *57:9 *95:9 0.00888136
9 *56:9 *57:9 0.152165
*RES
1 *419:io_oeb[26] *57:7 16.785 
2 *57:7 *57:9 450.27 
3 *57:9 io_oeb[26] 11.025 
*END

*D_NET *58 0.356615
*CONN
*P io_oeb[27] O
*I *419:io_oeb[27] O *D ADC_LogiCompilation
*CAP
1 io_oeb[27] 0.000824116
2 *419:io_oeb[27] 0.00211941
3 *58:9 0.00225099
4 *58:7 0.00354628
5 *58:9 *59:9 0.15647
6 *58:9 *64:21 0.00492346
7 *58:9 *65:18 0.0191516
8 *58:9 *95:9 0.0129659
9 *57:9 *58:9 0.154363
*RES
1 *419:io_oeb[27] *58:7 16.965 
2 *58:7 *58:9 455.67 
3 *58:9 io_oeb[27] 10.845 
*END

*D_NET *59 0.27519
*CONN
*P io_oeb[28] O
*I *419:io_oeb[28] O *D ADC_LogiCompilation
*CAP
1 io_oeb[28] 0.000802552
2 *419:io_oeb[28] 0.00183325
3 *59:9 0.0185742
4 *59:7 0.0196049
5 *59:9 io_oeb[34] 6.39754e-05
6 *59:9 *65:18 0.0139259
7 *59:9 *93:29 0.00749756
8 *59:9 *95:9 0.0378446
9 *59:9 *96:9 0.0185732
10 *58:9 *59:9 0.15647
*RES
1 *419:io_oeb[28] *59:7 17.145 
2 *59:7 *59:9 461.07 
3 *59:9 io_oeb[28] 10.665 
*END

*D_NET *60 0.253945
*CONN
*P io_oeb[29] O
*I *419:io_oeb[29] O *D ADC_LogiCompilation
*CAP
1 io_oeb[29] 0.000971783
2 *419:io_oeb[29] 0.00169617
3 *60:9 0.0242545
4 *60:7 0.0249789
5 io_oeb[29] *93:35 0
6 *60:9 *64:21 0.0960032
7 *60:9 *93:27 0.000181929
8 *55:9 *60:9 0.0302025
9 *56:9 *60:9 0.0696988
10 *57:9 *60:9 0.00595698
*RES
1 *419:io_oeb[29] *60:7 16.425 
2 *60:7 *60:9 441.99 
3 *60:9 io_oeb[29] 11.385 
*END

*D_NET *61 0.0125826
*CONN
*P io_oeb[2] O
*I *419:io_oeb[2] O *D ADC_LogiCompilation
*CAP
1 io_oeb[2] 0.00192887
2 *419:io_oeb[2] 0.00436241
3 *61:11 0.00629128
*RES
1 *419:io_oeb[2] *61:11 43.695 
2 *61:11 io_oeb[2] 13.725 
*END

*D_NET *62 0.209751
*CONN
*P io_oeb[30] O
*I *419:io_oeb[30] O *D ADC_LogiCompilation
*CAP
1 io_oeb[30] 0.0016284
2 *419:io_oeb[30] 0.00101665
3 *62:9 0.0322677
4 *62:7 0.031656
5 *62:9 *63:9 0.143183
*RES
1 *419:io_oeb[30] *62:7 11.745 
2 *62:7 *62:9 422.91 
3 *62:9 io_oeb[30] 16.065 
*END

*D_NET *63 0.205544
*CONN
*P io_oeb[31] O
*I *419:io_oeb[31] O *D ADC_LogiCompilation
*CAP
1 io_oeb[31] 0.00193226
2 *419:io_oeb[31] 0.000978141
3 *63:9 0.0302027
4 *63:7 0.0292486
5 *62:9 *63:9 0.143183
*RES
1 *419:io_oeb[31] *63:7 11.565 
2 *63:7 *63:9 403.83 
3 *63:9 io_oeb[31] 16.245 
*END

*D_NET *64 0.458541
*CONN
*P io_oeb[32] O
*I *419:io_oeb[32] O *D ADC_LogiCompilation
*CAP
1 io_oeb[32] 0.00106411
2 *419:io_oeb[32] 0.00699702
3 *64:21 0.00859861
4 *64:19 0.00753449
5 *64:17 0.126858
6 *64:15 0.133855
7 *64:21 io_oeb[36] 0.000167301
8 *64:21 *65:18 0.0555542
9 *57:9 *64:21 0.0169846
10 *58:9 *64:21 0.00492346
11 *60:9 *64:21 0.0960032
*RES
1 *419:io_oeb[32] *64:15 25.8192 
2 *64:15 *64:17 371.531 
3 *64:17 *64:19 4.5 
4 *64:19 *64:21 278.701 
5 *64:21 io_oeb[32] 11.205 
*END

*D_NET *65 0.29503
*CONN
*P io_oeb[33] O
*I *419:io_oeb[33] O *D ADC_LogiCompilation
*CAP
1 io_oeb[33] 0.000828799
2 *419:io_oeb[33] 0.0041248
3 *65:18 0.00243138
4 *65:16 0.00160258
5 *65:14 0.0965799
6 *65:12 0.100705
7 *65:12 *67:13 0
8 *65:14 *67:13 0
9 *65:18 io_oeb[34] 5.69441e-05
10 *65:18 io_oeb[35] 6.9115e-05
11 *58:9 *65:18 0.0191516
12 *59:9 *65:18 0.0139259
13 *64:21 *65:18 0.0555542
*RES
1 *419:io_oeb[33] *65:12 24.5549 
2 *65:12 *65:14 371.607 
3 *65:14 *65:16 4.5 
4 *65:16 *65:18 137.761 
5 *65:18 io_oeb[33] 11.025 
*END

*D_NET *66 0.437621
*CONN
*P io_oeb[34] O
*I *419:io_oeb[34] O *D ADC_LogiCompilation
*CAP
1 io_oeb[34] 0.000798195
2 *419:io_oeb[34] 0.000531617
3 *66:13 0.218218
4 *66:11 0.217952
5 *9:17 *66:13 0
6 *59:9 io_oeb[34] 6.39754e-05
7 *65:18 io_oeb[34] 5.69441e-05
*RES
1 *419:io_oeb[34] *66:11 12.4682 
2 *66:11 *66:13 386.765 
3 *66:13 io_oeb[34] 15.5218 
*END

*D_NET *67 0.675091
*CONN
*P io_oeb[35] O
*I *419:io_oeb[35] O *D ADC_LogiCompilation
*CAP
1 io_oeb[35] 0.000805821
2 *419:io_oeb[35] 0.000613234
3 *67:13 0.278135
4 *67:11 0.277329
5 *67:9 0.00041272
6 *67:7 0.00102595
7 *67:9 *68:9 0.05835
8 *67:9 *69:9 0.05835
9 *65:12 *67:13 0
10 *65:14 *67:13 0
11 *65:18 io_oeb[35] 6.9115e-05
*RES
1 *419:io_oeb[35] *67:7 9.225 
2 *67:7 *67:9 144.627 
3 *67:9 *67:11 4.5 
4 *67:11 *67:13 389.133 
5 *67:13 io_oeb[35] 15.6182 
*END

*D_NET *68 0.327193
*CONN
*P io_oeb[36] O
*I *419:io_oeb[36] O *D ADC_LogiCompilation
*CAP
1 io_oeb[36] 0.00087374
2 *419:io_oeb[36] 0.000574728
3 *68:13 0.102017
4 *68:11 0.101143
5 *68:9 0.0184405
6 *68:7 0.0190153
7 *68:9 *69:9 0.0266118
8 *64:21 io_oeb[36] 0.000167301
9 *67:9 *68:9 0.05835
*RES
1 *419:io_oeb[36] *68:7 9.045 
2 *68:7 *68:9 285.541 
3 *68:9 *68:11 4.5 
4 *68:11 *68:13 389.056 